
---------- Begin Simulation Statistics ----------
simSeconds                                   0.078311                       # Number of seconds simulated (Second)
simTicks                                  78311278325                       # Number of ticks simulated (Tick)
finalTick                                 78311278325                       # Number of ticks from beginning of simulation (restored from checkpoints and never reset) (Tick)
simFreq                                  1000000000000                       # The number of ticks per simulated second ((Tick/Second))
hostSeconds                                    288.84                       # Real time elapsed on the host (Second)
hostTickRate                                271119633                       # The number of ticks simulated per host second (ticks/s) ((Tick/Second))
hostMemory                                    2255524                       # Number of bytes of host memory used (Byte)
simInsts                                    106697546                       # Number of instructions simulated (Count)
simOps                                      106697852                       # Number of ops (including micro ops) simulated (Count)
hostInstRate                                   369395                       # Simulator instruction rate (inst/s) ((Count/Second))
hostOpRate                                     369396                       # Simulator op (including micro ops) rate (op/s) ((Count/Second))
system.clk_domain.clock                           541                       # Clock period in ticks (Tick)
system.clk_domain.voltage_domain.voltage            1                       # Voltage in Volts (Volt)
system.cpu.numCycles                        144752825                       # Number of cpu cycles simulated (Cycle)
system.cpu.cpi                               1.356665                       # CPI: cycles per instruction (core level) ((Cycle/Count))
system.cpu.ipc                               0.737102                       # IPC: instructions per cycle (core level) ((Count/Cycle))
system.cpu.numWorkItemsStarted                      0                       # Number of work items this cpu started (Count)
system.cpu.numWorkItemsCompleted                    0                       # Number of work items this cpu completed (Count)
system.cpu.branchPred.lookups_0::NoBranch           84      0.00%      0.00% # Number of BP lookups (Count)
system.cpu.branchPred.lookups_0::Return       1262526     17.00%     17.01% # Number of BP lookups (Count)
system.cpu.branchPred.lookups_0::CallDirect       892936     12.03%     29.03% # Number of BP lookups (Count)
system.cpu.branchPred.lookups_0::CallIndirect        49113      0.66%     29.69% # Number of BP lookups (Count)
system.cpu.branchPred.lookups_0::DirectCond      4928580     66.38%     96.08% # Number of BP lookups (Count)
system.cpu.branchPred.lookups_0::DirectUncond       262617      3.54%     99.61% # Number of BP lookups (Count)
system.cpu.branchPred.lookups_0::IndirectCond            0      0.00%     99.61% # Number of BP lookups (Count)
system.cpu.branchPred.lookups_0::IndirectUncond        28754      0.39%    100.00% # Number of BP lookups (Count)
system.cpu.branchPred.lookups_0::total        7424610                       # Number of BP lookups (Count)
system.cpu.branchPred.squashes_0::NoBranch           17      0.02%      0.02% # Number of branches that got squashed (completely removed) as an earlier branch was mispredicted. (Count)
system.cpu.branchPred.squashes_0::Return          976      0.91%      0.92% # Number of branches that got squashed (completely removed) as an earlier branch was mispredicted. (Count)
system.cpu.branchPred.squashes_0::CallDirect        15835     14.69%     15.61% # Number of branches that got squashed (completely removed) as an earlier branch was mispredicted. (Count)
system.cpu.branchPred.squashes_0::CallIndirect         2771      2.57%     18.18% # Number of branches that got squashed (completely removed) as an earlier branch was mispredicted. (Count)
system.cpu.branchPred.squashes_0::DirectCond        86119     79.87%     98.04% # Number of branches that got squashed (completely removed) as an earlier branch was mispredicted. (Count)
system.cpu.branchPred.squashes_0::DirectUncond         1512      1.40%     99.44% # Number of branches that got squashed (completely removed) as an earlier branch was mispredicted. (Count)
system.cpu.branchPred.squashes_0::IndirectCond            0      0.00%     99.44% # Number of branches that got squashed (completely removed) as an earlier branch was mispredicted. (Count)
system.cpu.branchPred.squashes_0::IndirectUncond          600      0.56%    100.00% # Number of branches that got squashed (completely removed) as an earlier branch was mispredicted. (Count)
system.cpu.branchPred.squashes_0::total        107830                       # Number of branches that got squashed (completely removed) as an earlier branch was mispredicted. (Count)
system.cpu.branchPred.corrected_0::NoBranch           66      0.02%      0.02% # Number of branches that got corrected but not yet commited. Branches get corrected by decode or after execute. Also a branch misprediction can be detected out-of-order. Therefore, a corrected branch might not end up beeing committed in case an even earlier branch was mispredicted (Count)
system.cpu.branchPred.corrected_0::Return       309933     90.36%     90.38% # Number of branches that got corrected but not yet commited. Branches get corrected by decode or after execute. Also a branch misprediction can be detected out-of-order. Therefore, a corrected branch might not end up beeing committed in case an even earlier branch was mispredicted (Count)
system.cpu.branchPred.corrected_0::CallDirect          516      0.15%     90.53% # Number of branches that got corrected but not yet commited. Branches get corrected by decode or after execute. Also a branch misprediction can be detected out-of-order. Therefore, a corrected branch might not end up beeing committed in case an even earlier branch was mispredicted (Count)
system.cpu.branchPred.corrected_0::CallIndirect          219      0.06%     90.60% # Number of branches that got corrected but not yet commited. Branches get corrected by decode or after execute. Also a branch misprediction can be detected out-of-order. Therefore, a corrected branch might not end up beeing committed in case an even earlier branch was mispredicted (Count)
system.cpu.branchPred.corrected_0::DirectCond        31777      9.26%     99.86% # Number of branches that got corrected but not yet commited. Branches get corrected by decode or after execute. Also a branch misprediction can be detected out-of-order. Therefore, a corrected branch might not end up beeing committed in case an even earlier branch was mispredicted (Count)
system.cpu.branchPred.corrected_0::DirectUncond          371      0.11%     99.97% # Number of branches that got corrected but not yet commited. Branches get corrected by decode or after execute. Also a branch misprediction can be detected out-of-order. Therefore, a corrected branch might not end up beeing committed in case an even earlier branch was mispredicted (Count)
system.cpu.branchPred.corrected_0::IndirectCond            0      0.00%     99.97% # Number of branches that got corrected but not yet commited. Branches get corrected by decode or after execute. Also a branch misprediction can be detected out-of-order. Therefore, a corrected branch might not end up beeing committed in case an even earlier branch was mispredicted (Count)
system.cpu.branchPred.corrected_0::IndirectUncond          107      0.03%    100.00% # Number of branches that got corrected but not yet commited. Branches get corrected by decode or after execute. Also a branch misprediction can be detected out-of-order. Therefore, a corrected branch might not end up beeing committed in case an even earlier branch was mispredicted (Count)
system.cpu.branchPred.corrected_0::total       342989                       # Number of branches that got corrected but not yet commited. Branches get corrected by decode or after execute. Also a branch misprediction can be detected out-of-order. Therefore, a corrected branch might not end up beeing committed in case an even earlier branch was mispredicted (Count)
system.cpu.branchPred.earlyResteers_0::NoBranch            0                       # Number of branches that got redirected after decode. (Count)
system.cpu.branchPred.earlyResteers_0::Return            0                       # Number of branches that got redirected after decode. (Count)
system.cpu.branchPred.earlyResteers_0::CallDirect            0                       # Number of branches that got redirected after decode. (Count)
system.cpu.branchPred.earlyResteers_0::CallIndirect            0                       # Number of branches that got redirected after decode. (Count)
system.cpu.branchPred.earlyResteers_0::DirectCond            0                       # Number of branches that got redirected after decode. (Count)
system.cpu.branchPred.earlyResteers_0::DirectUncond            0                       # Number of branches that got redirected after decode. (Count)
system.cpu.branchPred.earlyResteers_0::IndirectCond            0                       # Number of branches that got redirected after decode. (Count)
system.cpu.branchPred.earlyResteers_0::IndirectUncond            0                       # Number of branches that got redirected after decode. (Count)
system.cpu.branchPred.earlyResteers_0::total            0                       # Number of branches that got redirected after decode. (Count)
system.cpu.branchPred.committed_0::NoBranch           66      0.00%      0.00% # Number of branches finally committed  (Count)
system.cpu.branchPred.committed_0::Return      1261550     17.24%     17.24% # Number of branches finally committed  (Count)
system.cpu.branchPred.committed_0::CallDirect       877101     11.99%     29.23% # Number of branches finally committed  (Count)
system.cpu.branchPred.committed_0::CallIndirect        46342      0.63%     29.86% # Number of branches finally committed  (Count)
system.cpu.branchPred.committed_0::DirectCond      4842460     66.18%     96.05% # Number of branches finally committed  (Count)
system.cpu.branchPred.committed_0::DirectUncond       261105      3.57%     99.62% # Number of branches finally committed  (Count)
system.cpu.branchPred.committed_0::IndirectCond            0      0.00%     99.62% # Number of branches finally committed  (Count)
system.cpu.branchPred.committed_0::IndirectUncond        28154      0.38%    100.00% # Number of branches finally committed  (Count)
system.cpu.branchPred.committed_0::total      7316778                       # Number of branches finally committed  (Count)
system.cpu.branchPred.mispredicted_0::NoBranch           66      0.02%      0.02% # Number of committed branches that were mispredicted. (Count)
system.cpu.branchPred.mispredicted_0::Return       309933     90.36%     90.38% # Number of committed branches that were mispredicted. (Count)
system.cpu.branchPred.mispredicted_0::CallDirect          516      0.15%     90.53% # Number of committed branches that were mispredicted. (Count)
system.cpu.branchPred.mispredicted_0::CallIndirect          219      0.06%     90.60% # Number of committed branches that were mispredicted. (Count)
system.cpu.branchPred.mispredicted_0::DirectCond        31777      9.26%     99.86% # Number of committed branches that were mispredicted. (Count)
system.cpu.branchPred.mispredicted_0::DirectUncond          371      0.11%     99.97% # Number of committed branches that were mispredicted. (Count)
system.cpu.branchPred.mispredicted_0::IndirectCond            0      0.00%     99.97% # Number of committed branches that were mispredicted. (Count)
system.cpu.branchPred.mispredicted_0::IndirectUncond          107      0.03%    100.00% # Number of committed branches that were mispredicted. (Count)
system.cpu.branchPred.mispredicted_0::total       342989                       # Number of committed branches that were mispredicted. (Count)
system.cpu.branchPred.targetProvider_0::NoTarget      3189883     42.96%     42.96% # The component providing the target for taken branches (Count)
system.cpu.branchPred.targetProvider_0::BTB      2896189     39.01%     81.97% # The component providing the target for taken branches (Count)
system.cpu.branchPred.targetProvider_0::RAS      1262522     17.00%     98.98% # The component providing the target for taken branches (Count)
system.cpu.branchPred.targetProvider_0::Indirect        76016      1.02%    100.00% # The component providing the target for taken branches (Count)
system.cpu.branchPred.targetProvider_0::total      7424610                       # The component providing the target for taken branches (Count)
system.cpu.branchPred.targetWrong_0::NoBranch         4623      1.35%      1.35% # Number of branches where the target was incorrect or not available at prediction time. (Count)
system.cpu.branchPred.targetWrong_0::Return        28343      8.27%      9.61% # Number of branches where the target was incorrect or not available at prediction time. (Count)
system.cpu.branchPred.targetWrong_0::CallDirect       309929     90.38%     99.99% # Number of branches where the target was incorrect or not available at prediction time. (Count)
system.cpu.branchPred.targetWrong_0::CallIndirect           25      0.01%    100.00% # Number of branches where the target was incorrect or not available at prediction time. (Count)
system.cpu.branchPred.targetWrong_0::DirectCond            0      0.00%    100.00% # Number of branches where the target was incorrect or not available at prediction time. (Count)
system.cpu.branchPred.targetWrong_0::DirectUncond            0      0.00%    100.00% # Number of branches where the target was incorrect or not available at prediction time. (Count)
system.cpu.branchPred.targetWrong_0::IndirectCond            0      0.00%    100.00% # Number of branches where the target was incorrect or not available at prediction time. (Count)
system.cpu.branchPred.targetWrong_0::IndirectUncond            0      0.00%    100.00% # Number of branches where the target was incorrect or not available at prediction time. (Count)
system.cpu.branchPred.targetWrong_0::total       342920                       # Number of branches where the target was incorrect or not available at prediction time. (Count)
system.cpu.branchPred.condPredicted           4928664                       # Number of conditional branches predicted (Count)
system.cpu.branchPred.condPredictedTaken      1744741                       # Number of conditional branches predicted as taken (Count)
system.cpu.branchPred.condIncorrect            342989                       # Number of conditional branches incorrect (Count)
system.cpu.branchPred.predTakenBTBMiss           1035                       # Number of branches predicted taken but missed in BTB (Count)
system.cpu.branchPred.NotTakenMispredicted       314848                       # Number branches predicted 'not taken' but turned out to be taken (Count)
system.cpu.branchPred.TakenMispredicted         28141                       # Number branches predicted taken but are actually not taken (Count)
system.cpu.branchPred.BTBLookups              7424610                       # Number of BTB lookups (Count)
system.cpu.branchPred.BTBUpdates                 4523                       # Number of BTB updates (Count)
system.cpu.branchPred.BTBHits                 3438986                       # Number of BTB hits (Count)
system.cpu.branchPred.BTBHitRatio            0.463187                       # BTB Hit Ratio (Ratio)
system.cpu.branchPred.BTBMispredicted            1534                       # Number BTB mispredictions. No target found or target wrong (Count)
system.cpu.branchPred.indirectLookups           77867                       # Number of indirect predictor lookups. (Count)
system.cpu.branchPred.indirectHits              76016                       # Number of indirect target hits. (Count)
system.cpu.branchPred.indirectMisses             1851                       # Number of indirect misses. (Count)
system.cpu.branchPred.indirectMispredicted            0                       # Number of mispredicted indirect branches. (Count)
system.cpu.branchPred.btb.lookups::NoBranch           84      0.00%      0.00% # Number of BTB lookups (Count)
system.cpu.branchPred.btb.lookups::Return      1262526     17.00%     17.01% # Number of BTB lookups (Count)
system.cpu.branchPred.btb.lookups::CallDirect       892936     12.03%     29.03% # Number of BTB lookups (Count)
system.cpu.branchPred.btb.lookups::CallIndirect        49113      0.66%     29.69% # Number of BTB lookups (Count)
system.cpu.branchPred.btb.lookups::DirectCond      4928580     66.38%     96.08% # Number of BTB lookups (Count)
system.cpu.branchPred.btb.lookups::DirectUncond       262617      3.54%     99.61% # Number of BTB lookups (Count)
system.cpu.branchPred.btb.lookups::IndirectCond            0      0.00%     99.61% # Number of BTB lookups (Count)
system.cpu.branchPred.btb.lookups::IndirectUncond        28754      0.39%    100.00% # Number of BTB lookups (Count)
system.cpu.branchPred.btb.lookups::total      7424610                       # Number of BTB lookups (Count)
system.cpu.branchPred.btb.misses::NoBranch           84      0.00%      0.00% # Number of BTB misses (Count)
system.cpu.branchPred.btb.misses::Return      1259575     31.60%     31.61% # Number of BTB misses (Count)
system.cpu.branchPred.btb.misses::CallDirect         1556      0.04%     31.64% # Number of BTB misses (Count)
system.cpu.branchPred.btb.misses::CallIndirect         5578      0.14%     31.78% # Number of BTB misses (Count)
system.cpu.branchPred.btb.misses::DirectCond      2689161     67.47%     99.26% # Number of BTB misses (Count)
system.cpu.branchPred.btb.misses::DirectUncond          916      0.02%     99.28% # Number of BTB misses (Count)
system.cpu.branchPred.btb.misses::IndirectCond            0      0.00%     99.28% # Number of BTB misses (Count)
system.cpu.branchPred.btb.misses::IndirectUncond        28754      0.72%    100.00% # Number of BTB misses (Count)
system.cpu.branchPred.btb.misses::total       3985624                       # Number of BTB misses (Count)
system.cpu.branchPred.btb.updates::NoBranch            0      0.00%      0.00% # Number of BTB updates (Count)
system.cpu.branchPred.btb.updates::Return            0      0.00%      0.00% # Number of BTB updates (Count)
system.cpu.branchPred.btb.updates::CallDirect          516     11.41%     11.41% # Number of BTB updates (Count)
system.cpu.branchPred.btb.updates::CallIndirect            0      0.00%     11.41% # Number of BTB updates (Count)
system.cpu.branchPred.btb.updates::DirectCond         3636     80.39%     91.80% # Number of BTB updates (Count)
system.cpu.branchPred.btb.updates::DirectUncond          371      8.20%    100.00% # Number of BTB updates (Count)
system.cpu.branchPred.btb.updates::IndirectCond            0      0.00%    100.00% # Number of BTB updates (Count)
system.cpu.branchPred.btb.updates::IndirectUncond            0      0.00%    100.00% # Number of BTB updates (Count)
system.cpu.branchPred.btb.updates::total         4523                       # Number of BTB updates (Count)
system.cpu.branchPred.btb.mispredict::NoBranch            0      0.00%      0.00% # Number of BTB mispredictions. No target found or target wrong. (Count)
system.cpu.branchPred.btb.mispredict::Return            0      0.00%      0.00% # Number of BTB mispredictions. No target found or target wrong. (Count)
system.cpu.branchPred.btb.mispredict::CallDirect          516     11.41%     11.41% # Number of BTB mispredictions. No target found or target wrong. (Count)
system.cpu.branchPred.btb.mispredict::CallIndirect            0      0.00%     11.41% # Number of BTB mispredictions. No target found or target wrong. (Count)
system.cpu.branchPred.btb.mispredict::DirectCond         3636     80.39%     91.80% # Number of BTB mispredictions. No target found or target wrong. (Count)
system.cpu.branchPred.btb.mispredict::DirectUncond          371      8.20%    100.00% # Number of BTB mispredictions. No target found or target wrong. (Count)
system.cpu.branchPred.btb.mispredict::IndirectCond            0      0.00%    100.00% # Number of BTB mispredictions. No target found or target wrong. (Count)
system.cpu.branchPred.btb.mispredict::IndirectUncond            0      0.00%    100.00% # Number of BTB mispredictions. No target found or target wrong. (Count)
system.cpu.branchPred.btb.mispredict::total         4523                       # Number of BTB mispredictions. No target found or target wrong. (Count)
system.cpu.branchPred.btb.power_state.pwrStateResidencyTicks::UNDEFINED  78311278325                       # Cumulative time (in ticks) in various power states (Tick)
system.cpu.branchPred.indirectBranchPred.lookups        77867                       # Number of lookups (Count)
system.cpu.branchPred.indirectBranchPred.hits        76016                       # Number of hits of a tag (Count)
system.cpu.branchPred.indirectBranchPred.misses         1851                       # Number of misses (Count)
system.cpu.branchPred.indirectBranchPred.targetRecords          326                       # Number of targets that where recorded/installed in the cache (Count)
system.cpu.branchPred.indirectBranchPred.indirectRecords        78193                       # Number of indirect branches/calls recorded in the indirect hist (Count)
system.cpu.branchPred.indirectBranchPred.speculativeOverflows            3                       # Number of times more than the allowed capacity for speculative branches/calls where in flight and destroy the path history (Count)
system.cpu.branchPred.ras.pushes               943025                       # Number of times a PC was pushed onto the RAS (Count)
system.cpu.branchPred.ras.pops                1281132                       # Number of times a PC was poped from the RAS (Count)
system.cpu.branchPred.ras.squashes              19582                       # Number of times the stack operation was squashed due to wrong speculation. (Count)
system.cpu.branchPred.ras.used                1261550                       # Number of times the RAS is the provider (Count)
system.cpu.branchPred.ras.correct              951617                       # Number of times the RAS is the provider and the prediction is correct (Count)
system.cpu.branchPred.ras.incorrect            309933                       # Number of times the RAS is the provider and the prediction is wrong (Count)
system.cpu.commitStats0.numInsts            106697546                       # Number of instructions committed (thread level) (Count)
system.cpu.commitStats0.numOps              106697852                       # Number of ops (including micro ops) committed (thread level) (Count)
system.cpu.commitStats0.numInstsNotNOP              0                       # Number of instructions committed excluding NOPs or prefetches (Count)
system.cpu.commitStats0.numOpsNotNOP                0                       # Number of Ops (including micro ops) Simulated (Count)
system.cpu.commitStats0.cpi                  1.356665                       # CPI: cycles per instruction (thread level) ((Cycle/Count))
system.cpu.commitStats0.ipc                  0.737102                       # IPC: instructions per cycle (thread level) ((Count/Cycle))
system.cpu.commitStats0.numMemRefs                  0                       # Number of memory references committed (Count)
system.cpu.commitStats0.numFpInsts                  0                       # Number of float instructions (Count)
system.cpu.commitStats0.numIntInsts                 0                       # Number of integer instructions (Count)
system.cpu.commitStats0.numLoadInsts                0                       # Number of load instructions (Count)
system.cpu.commitStats0.numStoreInsts               0                       # Number of store instructions (Count)
system.cpu.commitStats0.numVecInsts                 0                       # Number of vector instructions (Count)
system.cpu.commitStats0.committedInstType::No_OpClass       656178      0.61%      0.61% # Class of committed instruction. (Count)
system.cpu.commitStats0.committedInstType::IntAlu     40971513     38.40%     39.01% # Class of committed instruction. (Count)
system.cpu.commitStats0.committedInstType::IntMult     10513845      9.85%     48.87% # Class of committed instruction. (Count)
system.cpu.commitStats0.committedInstType::IntDiv        27899      0.03%     48.89% # Class of committed instruction. (Count)
system.cpu.commitStats0.committedInstType::FloatAdd      1304774      1.22%     50.12% # Class of committed instruction. (Count)
system.cpu.commitStats0.committedInstType::FloatCmp      1058901      0.99%     51.11% # Class of committed instruction. (Count)
system.cpu.commitStats0.committedInstType::FloatCvt      2996819      2.81%     53.92% # Class of committed instruction. (Count)
system.cpu.commitStats0.committedInstType::FloatMult      2484103      2.33%     56.25% # Class of committed instruction. (Count)
system.cpu.commitStats0.committedInstType::FloatMultAcc       516639      0.48%     56.73% # Class of committed instruction. (Count)
system.cpu.commitStats0.committedInstType::FloatDiv       161971      0.15%     56.88% # Class of committed instruction. (Count)
system.cpu.commitStats0.committedInstType::FloatMisc      1903814      1.78%     58.67% # Class of committed instruction. (Count)
system.cpu.commitStats0.committedInstType::FloatSqrt            0      0.00%     58.67% # Class of committed instruction. (Count)
system.cpu.commitStats0.committedInstType::SimdAdd            0      0.00%     58.67% # Class of committed instruction. (Count)
system.cpu.commitStats0.committedInstType::SimdAddAcc            0      0.00%     58.67% # Class of committed instruction. (Count)
system.cpu.commitStats0.committedInstType::SimdAlu            0      0.00%     58.67% # Class of committed instruction. (Count)
system.cpu.commitStats0.committedInstType::SimdCmp            0      0.00%     58.67% # Class of committed instruction. (Count)
system.cpu.commitStats0.committedInstType::SimdCvt            0      0.00%     58.67% # Class of committed instruction. (Count)
system.cpu.commitStats0.committedInstType::SimdMisc            0      0.00%     58.67% # Class of committed instruction. (Count)
system.cpu.commitStats0.committedInstType::SimdMult            0      0.00%     58.67% # Class of committed instruction. (Count)
system.cpu.commitStats0.committedInstType::SimdMultAcc            0      0.00%     58.67% # Class of committed instruction. (Count)
system.cpu.commitStats0.committedInstType::SimdMatMultAcc            0      0.00%     58.67% # Class of committed instruction. (Count)
system.cpu.commitStats0.committedInstType::SimdShift            0      0.00%     58.67% # Class of committed instruction. (Count)
system.cpu.commitStats0.committedInstType::SimdShiftAcc            0      0.00%     58.67% # Class of committed instruction. (Count)
system.cpu.commitStats0.committedInstType::SimdDiv            0      0.00%     58.67% # Class of committed instruction. (Count)
system.cpu.commitStats0.committedInstType::SimdSqrt            0      0.00%     58.67% # Class of committed instruction. (Count)
system.cpu.commitStats0.committedInstType::SimdFloatAdd            0      0.00%     58.67% # Class of committed instruction. (Count)
system.cpu.commitStats0.committedInstType::SimdFloatAlu            0      0.00%     58.67% # Class of committed instruction. (Count)
system.cpu.commitStats0.committedInstType::SimdFloatCmp            0      0.00%     58.67% # Class of committed instruction. (Count)
system.cpu.commitStats0.committedInstType::SimdFloatCvt            0      0.00%     58.67% # Class of committed instruction. (Count)
system.cpu.commitStats0.committedInstType::SimdFloatDiv            0      0.00%     58.67% # Class of committed instruction. (Count)
system.cpu.commitStats0.committedInstType::SimdFloatMisc            0      0.00%     58.67% # Class of committed instruction. (Count)
system.cpu.commitStats0.committedInstType::SimdFloatMult            0      0.00%     58.67% # Class of committed instruction. (Count)
system.cpu.commitStats0.committedInstType::SimdFloatMultAcc            0      0.00%     58.67% # Class of committed instruction. (Count)
system.cpu.commitStats0.committedInstType::SimdFloatMatMultAcc            0      0.00%     58.67% # Class of committed instruction. (Count)
system.cpu.commitStats0.committedInstType::SimdFloatSqrt            0      0.00%     58.67% # Class of committed instruction. (Count)
system.cpu.commitStats0.committedInstType::SimdReduceAdd            0      0.00%     58.67% # Class of committed instruction. (Count)
system.cpu.commitStats0.committedInstType::SimdReduceAlu            0      0.00%     58.67% # Class of committed instruction. (Count)
system.cpu.commitStats0.committedInstType::SimdReduceCmp            0      0.00%     58.67% # Class of committed instruction. (Count)
system.cpu.commitStats0.committedInstType::SimdFloatReduceAdd            0      0.00%     58.67% # Class of committed instruction. (Count)
system.cpu.commitStats0.committedInstType::SimdFloatReduceCmp            0      0.00%     58.67% # Class of committed instruction. (Count)
system.cpu.commitStats0.committedInstType::SimdAes            0      0.00%     58.67% # Class of committed instruction. (Count)
system.cpu.commitStats0.committedInstType::SimdAesMix            0      0.00%     58.67% # Class of committed instruction. (Count)
system.cpu.commitStats0.committedInstType::SimdSha1Hash            0      0.00%     58.67% # Class of committed instruction. (Count)
system.cpu.commitStats0.committedInstType::SimdSha1Hash2            0      0.00%     58.67% # Class of committed instruction. (Count)
system.cpu.commitStats0.committedInstType::SimdSha256Hash            0      0.00%     58.67% # Class of committed instruction. (Count)
system.cpu.commitStats0.committedInstType::SimdSha256Hash2            0      0.00%     58.67% # Class of committed instruction. (Count)
system.cpu.commitStats0.committedInstType::SimdShaSigma2            0      0.00%     58.67% # Class of committed instruction. (Count)
system.cpu.commitStats0.committedInstType::SimdShaSigma3            0      0.00%     58.67% # Class of committed instruction. (Count)
system.cpu.commitStats0.committedInstType::SimdPredAlu            0      0.00%     58.67% # Class of committed instruction. (Count)
system.cpu.commitStats0.committedInstType::Matrix            0      0.00%     58.67% # Class of committed instruction. (Count)
system.cpu.commitStats0.committedInstType::MatrixMov            0      0.00%     58.67% # Class of committed instruction. (Count)
system.cpu.commitStats0.committedInstType::MatrixOP            0      0.00%     58.67% # Class of committed instruction. (Count)
system.cpu.commitStats0.committedInstType::MemRead     29085873     27.26%     85.93% # Class of committed instruction. (Count)
system.cpu.commitStats0.committedInstType::MemWrite     11823696     11.08%     97.01% # Class of committed instruction. (Count)
system.cpu.commitStats0.committedInstType::FloatMemRead      3141859      2.94%     99.95% # Class of committed instruction. (Count)
system.cpu.commitStats0.committedInstType::FloatMemWrite        49968      0.05%    100.00% # Class of committed instruction. (Count)
system.cpu.commitStats0.committedInstType::IprAccess            0      0.00%    100.00% # Class of committed instruction. (Count)
system.cpu.commitStats0.committedInstType::InstPrefetch            0      0.00%    100.00% # Class of committed instruction. (Count)
system.cpu.commitStats0.committedInstType::SimdUnitStrideLoad            0      0.00%    100.00% # Class of committed instruction. (Count)
system.cpu.commitStats0.committedInstType::SimdUnitStrideStore            0      0.00%    100.00% # Class of committed instruction. (Count)
system.cpu.commitStats0.committedInstType::SimdUnitStrideMaskLoad            0      0.00%    100.00% # Class of committed instruction. (Count)
system.cpu.commitStats0.committedInstType::SimdUnitStrideMaskStore            0      0.00%    100.00% # Class of committed instruction. (Count)
system.cpu.commitStats0.committedInstType::SimdStridedLoad            0      0.00%    100.00% # Class of committed instruction. (Count)
system.cpu.commitStats0.committedInstType::SimdStridedStore            0      0.00%    100.00% # Class of committed instruction. (Count)
system.cpu.commitStats0.committedInstType::SimdIndexedLoad            0      0.00%    100.00% # Class of committed instruction. (Count)
system.cpu.commitStats0.committedInstType::SimdIndexedStore            0      0.00%    100.00% # Class of committed instruction. (Count)
system.cpu.commitStats0.committedInstType::SimdWholeRegisterLoad            0      0.00%    100.00% # Class of committed instruction. (Count)
system.cpu.commitStats0.committedInstType::SimdWholeRegisterStore            0      0.00%    100.00% # Class of committed instruction. (Count)
system.cpu.commitStats0.committedInstType::SimdUnitStrideFaultOnlyFirstLoad            0      0.00%    100.00% # Class of committed instruction. (Count)
system.cpu.commitStats0.committedInstType::SimdUnitStrideSegmentedLoad            0      0.00%    100.00% # Class of committed instruction. (Count)
system.cpu.commitStats0.committedInstType::SimdUnitStrideSegmentedStore            0      0.00%    100.00% # Class of committed instruction. (Count)
system.cpu.commitStats0.committedInstType::SimdExt            0      0.00%    100.00% # Class of committed instruction. (Count)
system.cpu.commitStats0.committedInstType::SimdFloatExt            0      0.00%    100.00% # Class of committed instruction. (Count)
system.cpu.commitStats0.committedInstType::SimdConfig            0      0.00%    100.00% # Class of committed instruction. (Count)
system.cpu.commitStats0.committedInstType::total    106697852                       # Class of committed instruction. (Count)
system.cpu.dcache.demandHits::cpu.data       44036912                       # number of demand (read+write) hits (Count)
system.cpu.dcache.demandHits::total          44036912                       # number of demand (read+write) hits (Count)
system.cpu.dcache.overallHits::cpu.data      44036912                       # number of overall hits (Count)
system.cpu.dcache.overallHits::total         44036912                       # number of overall hits (Count)
system.cpu.dcache.demandMisses::cpu.data        74063                       # number of demand (read+write) misses (Count)
system.cpu.dcache.demandMisses::total           74063                       # number of demand (read+write) misses (Count)
system.cpu.dcache.overallMisses::cpu.data        74063                       # number of overall misses (Count)
system.cpu.dcache.overallMisses::total          74063                       # number of overall misses (Count)
system.cpu.dcache.demandMissLatency::cpu.data   3349056713                       # number of demand (read+write) miss ticks (Tick)
system.cpu.dcache.demandMissLatency::total   3349056713                       # number of demand (read+write) miss ticks (Tick)
system.cpu.dcache.overallMissLatency::cpu.data   3349056713                       # number of overall miss ticks (Tick)
system.cpu.dcache.overallMissLatency::total   3349056713                       # number of overall miss ticks (Tick)
system.cpu.dcache.demandAccesses::cpu.data     44110975                       # number of demand (read+write) accesses (Count)
system.cpu.dcache.demandAccesses::total      44110975                       # number of demand (read+write) accesses (Count)
system.cpu.dcache.overallAccesses::cpu.data     44110975                       # number of overall (read+write) accesses (Count)
system.cpu.dcache.overallAccesses::total     44110975                       # number of overall (read+write) accesses (Count)
system.cpu.dcache.demandMissRate::cpu.data     0.001679                       # miss rate for demand accesses (Ratio)
system.cpu.dcache.demandMissRate::total      0.001679                       # miss rate for demand accesses (Ratio)
system.cpu.dcache.overallMissRate::cpu.data     0.001679                       # miss rate for overall accesses (Ratio)
system.cpu.dcache.overallMissRate::total     0.001679                       # miss rate for overall accesses (Ratio)
system.cpu.dcache.demandAvgMissLatency::cpu.data 45219.025870                       # average overall miss latency in ticks ((Tick/Count))
system.cpu.dcache.demandAvgMissLatency::total 45219.025870                       # average overall miss latency in ticks ((Tick/Count))
system.cpu.dcache.overallAvgMissLatency::cpu.data 45219.025870                       # average overall miss latency ((Tick/Count))
system.cpu.dcache.overallAvgMissLatency::total 45219.025870                       # average overall miss latency ((Tick/Count))
system.cpu.dcache.blockedCycles::no_mshrs            0                       # number of cycles access was blocked (Cycle)
system.cpu.dcache.blockedCycles::no_targets            0                       # number of cycles access was blocked (Cycle)
system.cpu.dcache.blockedCauses::no_mshrs            0                       # number of times access was blocked (Count)
system.cpu.dcache.blockedCauses::no_targets            0                       # number of times access was blocked (Count)
system.cpu.dcache.avgBlocked::no_mshrs            nan                       # average number of cycles each access was blocked ((Cycle/Count))
system.cpu.dcache.avgBlocked::no_targets          nan                       # average number of cycles each access was blocked ((Cycle/Count))
system.cpu.dcache.writebacks::writebacks        49678                       # number of writebacks (Count)
system.cpu.dcache.writebacks::total             49678                       # number of writebacks (Count)
system.cpu.dcache.demandMshrHits::cpu.data        13542                       # number of demand (read+write) MSHR hits (Count)
system.cpu.dcache.demandMshrHits::total         13542                       # number of demand (read+write) MSHR hits (Count)
system.cpu.dcache.overallMshrHits::cpu.data        13542                       # number of overall MSHR hits (Count)
system.cpu.dcache.overallMshrHits::total        13542                       # number of overall MSHR hits (Count)
system.cpu.dcache.demandMshrMisses::cpu.data        60521                       # number of demand (read+write) MSHR misses (Count)
system.cpu.dcache.demandMshrMisses::total        60521                       # number of demand (read+write) MSHR misses (Count)
system.cpu.dcache.overallMshrMisses::cpu.data        60521                       # number of overall MSHR misses (Count)
system.cpu.dcache.overallMshrMisses::total        60521                       # number of overall MSHR misses (Count)
system.cpu.dcache.demandMshrMissLatency::cpu.data   2620945371                       # number of demand (read+write) MSHR miss ticks (Tick)
system.cpu.dcache.demandMshrMissLatency::total   2620945371                       # number of demand (read+write) MSHR miss ticks (Tick)
system.cpu.dcache.overallMshrMissLatency::cpu.data   2620945371                       # number of overall MSHR miss ticks (Tick)
system.cpu.dcache.overallMshrMissLatency::total   2620945371                       # number of overall MSHR miss ticks (Tick)
system.cpu.dcache.demandMshrMissRate::cpu.data     0.001372                       # mshr miss ratio for demand accesses (Ratio)
system.cpu.dcache.demandMshrMissRate::total     0.001372                       # mshr miss ratio for demand accesses (Ratio)
system.cpu.dcache.overallMshrMissRate::cpu.data     0.001372                       # mshr miss ratio for overall accesses (Ratio)
system.cpu.dcache.overallMshrMissRate::total     0.001372                       # mshr miss ratio for overall accesses (Ratio)
system.cpu.dcache.demandAvgMshrMissLatency::cpu.data 43306.379125                       # average overall mshr miss latency ((Tick/Count))
system.cpu.dcache.demandAvgMshrMissLatency::total 43306.379125                       # average overall mshr miss latency ((Tick/Count))
system.cpu.dcache.overallAvgMshrMissLatency::cpu.data 43306.379125                       # average overall mshr miss latency ((Tick/Count))
system.cpu.dcache.overallAvgMshrMissLatency::total 43306.379125                       # average overall mshr miss latency ((Tick/Count))
system.cpu.dcache.replacements                  59531                       # number of replacements (Count)
system.cpu.dcache.LoadLockedReq.hits::cpu.data           23                       # number of LoadLockedReq hits (Count)
system.cpu.dcache.LoadLockedReq.hits::total           23                       # number of LoadLockedReq hits (Count)
system.cpu.dcache.LoadLockedReq.misses::cpu.data            9                       # number of LoadLockedReq misses (Count)
system.cpu.dcache.LoadLockedReq.misses::total            9                       # number of LoadLockedReq misses (Count)
system.cpu.dcache.LoadLockedReq.missLatency::cpu.data       223433                       # number of LoadLockedReq miss ticks (Tick)
system.cpu.dcache.LoadLockedReq.missLatency::total       223433                       # number of LoadLockedReq miss ticks (Tick)
system.cpu.dcache.LoadLockedReq.accesses::cpu.data           32                       # number of LoadLockedReq accesses(hits+misses) (Count)
system.cpu.dcache.LoadLockedReq.accesses::total           32                       # number of LoadLockedReq accesses(hits+misses) (Count)
system.cpu.dcache.LoadLockedReq.missRate::cpu.data     0.281250                       # miss rate for LoadLockedReq accesses (Ratio)
system.cpu.dcache.LoadLockedReq.missRate::total     0.281250                       # miss rate for LoadLockedReq accesses (Ratio)
system.cpu.dcache.LoadLockedReq.avgMissLatency::cpu.data 24825.888889                       # average LoadLockedReq miss latency ((Tick/Count))
system.cpu.dcache.LoadLockedReq.avgMissLatency::total 24825.888889                       # average LoadLockedReq miss latency ((Tick/Count))
system.cpu.dcache.LoadLockedReq.mshrMisses::cpu.data            9                       # number of LoadLockedReq MSHR misses (Count)
system.cpu.dcache.LoadLockedReq.mshrMisses::total            9                       # number of LoadLockedReq MSHR misses (Count)
system.cpu.dcache.LoadLockedReq.mshrMissLatency::cpu.data       213695                       # number of LoadLockedReq MSHR miss ticks (Tick)
system.cpu.dcache.LoadLockedReq.mshrMissLatency::total       213695                       # number of LoadLockedReq MSHR miss ticks (Tick)
system.cpu.dcache.LoadLockedReq.mshrMissRate::cpu.data     0.281250                       # mshr miss rate for LoadLockedReq accesses (Ratio)
system.cpu.dcache.LoadLockedReq.mshrMissRate::total     0.281250                       # mshr miss rate for LoadLockedReq accesses (Ratio)
system.cpu.dcache.LoadLockedReq.avgMshrMissLatency::cpu.data 23743.888889                       # average LoadLockedReq mshr miss latency ((Tick/Count))
system.cpu.dcache.LoadLockedReq.avgMshrMissLatency::total 23743.888889                       # average LoadLockedReq mshr miss latency ((Tick/Count))
system.cpu.dcache.ReadReq.hits::cpu.data     32198495                       # number of ReadReq hits (Count)
system.cpu.dcache.ReadReq.hits::total        32198495                       # number of ReadReq hits (Count)
system.cpu.dcache.ReadReq.misses::cpu.data        38959                       # number of ReadReq misses (Count)
system.cpu.dcache.ReadReq.misses::total         38959                       # number of ReadReq misses (Count)
system.cpu.dcache.ReadReq.missLatency::cpu.data   1253753975                       # number of ReadReq miss ticks (Tick)
system.cpu.dcache.ReadReq.missLatency::total   1253753975                       # number of ReadReq miss ticks (Tick)
system.cpu.dcache.ReadReq.accesses::cpu.data     32237454                       # number of ReadReq accesses(hits+misses) (Count)
system.cpu.dcache.ReadReq.accesses::total     32237454                       # number of ReadReq accesses(hits+misses) (Count)
system.cpu.dcache.ReadReq.missRate::cpu.data     0.001209                       # miss rate for ReadReq accesses (Ratio)
system.cpu.dcache.ReadReq.missRate::total     0.001209                       # miss rate for ReadReq accesses (Ratio)
system.cpu.dcache.ReadReq.avgMissLatency::cpu.data 32181.369517                       # average ReadReq miss latency ((Tick/Count))
system.cpu.dcache.ReadReq.avgMissLatency::total 32181.369517                       # average ReadReq miss latency ((Tick/Count))
system.cpu.dcache.ReadReq.mshrHits::cpu.data         2778                       # number of ReadReq MSHR hits (Count)
system.cpu.dcache.ReadReq.mshrHits::total         2778                       # number of ReadReq MSHR hits (Count)
system.cpu.dcache.ReadReq.mshrMisses::cpu.data        36181                       # number of ReadReq MSHR misses (Count)
system.cpu.dcache.ReadReq.mshrMisses::total        36181                       # number of ReadReq MSHR misses (Count)
system.cpu.dcache.ReadReq.mshrMissLatency::cpu.data   1131905627                       # number of ReadReq MSHR miss ticks (Tick)
system.cpu.dcache.ReadReq.mshrMissLatency::total   1131905627                       # number of ReadReq MSHR miss ticks (Tick)
system.cpu.dcache.ReadReq.mshrMissRate::cpu.data     0.001122                       # mshr miss rate for ReadReq accesses (Ratio)
system.cpu.dcache.ReadReq.mshrMissRate::total     0.001122                       # mshr miss rate for ReadReq accesses (Ratio)
system.cpu.dcache.ReadReq.avgMshrMissLatency::cpu.data 31284.531301                       # average ReadReq mshr miss latency ((Tick/Count))
system.cpu.dcache.ReadReq.avgMshrMissLatency::total 31284.531301                       # average ReadReq mshr miss latency ((Tick/Count))
system.cpu.dcache.StoreCondReq.hits::cpu.data           32                       # number of StoreCondReq hits (Count)
system.cpu.dcache.StoreCondReq.hits::total           32                       # number of StoreCondReq hits (Count)
system.cpu.dcache.StoreCondReq.accesses::cpu.data           32                       # number of StoreCondReq accesses(hits+misses) (Count)
system.cpu.dcache.StoreCondReq.accesses::total           32                       # number of StoreCondReq accesses(hits+misses) (Count)
system.cpu.dcache.SwapReq.hits::cpu.data         3172                       # number of SwapReq hits (Count)
system.cpu.dcache.SwapReq.hits::total            3172                       # number of SwapReq hits (Count)
system.cpu.dcache.SwapReq.misses::cpu.data           25                       # number of SwapReq misses (Count)
system.cpu.dcache.SwapReq.misses::total            25                       # number of SwapReq misses (Count)
system.cpu.dcache.SwapReq.missLatency::cpu.data       489064                       # number of SwapReq miss ticks (Tick)
system.cpu.dcache.SwapReq.missLatency::total       489064                       # number of SwapReq miss ticks (Tick)
system.cpu.dcache.SwapReq.accesses::cpu.data         3197                       # number of SwapReq accesses(hits+misses) (Count)
system.cpu.dcache.SwapReq.accesses::total         3197                       # number of SwapReq accesses(hits+misses) (Count)
system.cpu.dcache.SwapReq.missRate::cpu.data     0.007820                       # miss rate for SwapReq accesses (Ratio)
system.cpu.dcache.SwapReq.missRate::total     0.007820                       # miss rate for SwapReq accesses (Ratio)
system.cpu.dcache.SwapReq.avgMissLatency::cpu.data 19562.560000                       # average SwapReq miss latency ((Tick/Count))
system.cpu.dcache.SwapReq.avgMissLatency::total 19562.560000                       # average SwapReq miss latency ((Tick/Count))
system.cpu.dcache.SwapReq.mshrMisses::cpu.data           25                       # number of SwapReq MSHR misses (Count)
system.cpu.dcache.SwapReq.mshrMisses::total           25                       # number of SwapReq MSHR misses (Count)
system.cpu.dcache.SwapReq.mshrMissLatency::cpu.data       462014                       # number of SwapReq MSHR miss ticks (Tick)
system.cpu.dcache.SwapReq.mshrMissLatency::total       462014                       # number of SwapReq MSHR miss ticks (Tick)
system.cpu.dcache.SwapReq.mshrMissRate::cpu.data     0.007820                       # mshr miss rate for SwapReq accesses (Ratio)
system.cpu.dcache.SwapReq.mshrMissRate::total     0.007820                       # mshr miss rate for SwapReq accesses (Ratio)
system.cpu.dcache.SwapReq.avgMshrMissLatency::cpu.data 18480.560000                       # average SwapReq mshr miss latency ((Tick/Count))
system.cpu.dcache.SwapReq.avgMshrMissLatency::total 18480.560000                       # average SwapReq mshr miss latency ((Tick/Count))
system.cpu.dcache.WriteReq.hits::cpu.data     11838417                       # number of WriteReq hits (Count)
system.cpu.dcache.WriteReq.hits::total       11838417                       # number of WriteReq hits (Count)
system.cpu.dcache.WriteReq.misses::cpu.data        35104                       # number of WriteReq misses (Count)
system.cpu.dcache.WriteReq.misses::total        35104                       # number of WriteReq misses (Count)
system.cpu.dcache.WriteReq.missLatency::cpu.data   2095302738                       # number of WriteReq miss ticks (Tick)
system.cpu.dcache.WriteReq.missLatency::total   2095302738                       # number of WriteReq miss ticks (Tick)
system.cpu.dcache.WriteReq.accesses::cpu.data     11873521                       # number of WriteReq accesses(hits+misses) (Count)
system.cpu.dcache.WriteReq.accesses::total     11873521                       # number of WriteReq accesses(hits+misses) (Count)
system.cpu.dcache.WriteReq.missRate::cpu.data     0.002956                       # miss rate for WriteReq accesses (Ratio)
system.cpu.dcache.WriteReq.missRate::total     0.002956                       # miss rate for WriteReq accesses (Ratio)
system.cpu.dcache.WriteReq.avgMissLatency::cpu.data 59688.432600                       # average WriteReq miss latency ((Tick/Count))
system.cpu.dcache.WriteReq.avgMissLatency::total 59688.432600                       # average WriteReq miss latency ((Tick/Count))
system.cpu.dcache.WriteReq.mshrHits::cpu.data        10764                       # number of WriteReq MSHR hits (Count)
system.cpu.dcache.WriteReq.mshrHits::total        10764                       # number of WriteReq MSHR hits (Count)
system.cpu.dcache.WriteReq.mshrMisses::cpu.data        24340                       # number of WriteReq MSHR misses (Count)
system.cpu.dcache.WriteReq.mshrMisses::total        24340                       # number of WriteReq MSHR misses (Count)
system.cpu.dcache.WriteReq.mshrMissLatency::cpu.data   1489039744                       # number of WriteReq MSHR miss ticks (Tick)
system.cpu.dcache.WriteReq.mshrMissLatency::total   1489039744                       # number of WriteReq MSHR miss ticks (Tick)
system.cpu.dcache.WriteReq.mshrMissRate::cpu.data     0.002050                       # mshr miss rate for WriteReq accesses (Ratio)
system.cpu.dcache.WriteReq.mshrMissRate::total     0.002050                       # mshr miss rate for WriteReq accesses (Ratio)
system.cpu.dcache.WriteReq.avgMshrMissLatency::cpu.data 61176.653410                       # average WriteReq mshr miss latency ((Tick/Count))
system.cpu.dcache.WriteReq.avgMshrMissLatency::total 61176.653410                       # average WriteReq mshr miss latency ((Tick/Count))
system.cpu.dcache.power_state.pwrStateResidencyTicks::UNDEFINED  78311278325                       # Cumulative time (in ticks) in various power states (Tick)
system.cpu.dcache.tags.tagsInUse          1022.408277                       # Average ticks per tags in use ((Tick/Count))
system.cpu.dcache.tags.totalRefs             44100694                       # Total number of references to valid blocks. (Count)
system.cpu.dcache.tags.sampledRefs              60555                       # Sample count of references to valid blocks. (Count)
system.cpu.dcache.tags.avgRefs             728.275023                       # Average number of references to valid blocks. ((Count/Count))
system.cpu.dcache.tags.warmupTick              215859                       # The tick when the warmup percentage was hit. (Tick)
system.cpu.dcache.tags.occupancies::cpu.data  1022.408277                       # Average occupied blocks per tick, per requestor ((Count/Tick))
system.cpu.dcache.tags.avgOccs::cpu.data     0.998446                       # Average percentage of cache occupancy ((Ratio/Tick))
system.cpu.dcache.tags.avgOccs::total        0.998446                       # Average percentage of cache occupancy ((Ratio/Tick))
system.cpu.dcache.tags.occupanciesTaskId::1024         1024                       # Occupied blocks per task id (Count)
system.cpu.dcache.tags.ageTaskId_1024::0           60                       # Occupied blocks per task id, per block age (Count)
system.cpu.dcache.tags.ageTaskId_1024::1          502                       # Occupied blocks per task id, per block age (Count)
system.cpu.dcache.tags.ageTaskId_1024::2          462                       # Occupied blocks per task id, per block age (Count)
system.cpu.dcache.tags.ratioOccsTaskId::1024            1                       # Ratio of occupied blocks and all blocks, per task id (Ratio)
system.cpu.dcache.tags.tagAccesses           88289027                       # Number of tag accesses (Count)
system.cpu.dcache.tags.dataAccesses          88289027                       # Number of data accesses (Count)
system.cpu.dcache.tags.power_state.pwrStateResidencyTicks::UNDEFINED  78311278325                       # Cumulative time (in ticks) in various power states (Tick)
system.cpu.executeStats0.numInsts                   0                       # Number of executed instructions (Count)
system.cpu.executeStats0.numNop                     0                       # Number of nop insts executed (Count)
system.cpu.executeStats0.numBranches                0                       # Number of branches executed (Count)
system.cpu.executeStats0.numLoadInsts               0                       # Number of load instructions executed (Count)
system.cpu.executeStats0.numStoreInsts              0                       # Number of stores executed (Count)
system.cpu.executeStats0.instRate                   0                       # Inst execution rate ((Count/Cycle))
system.cpu.executeStats0.numFpRegWrites             0                       # Number of times the floating registers were written (Count)
system.cpu.executeStats0.numMemRefs                 0                       # Number of memory refs (Count)
system.cpu.executeStats0.numVecAluAccesses            0                       # Number of vector alu accesses (Count)
system.cpu.executeStats0.numDiscardedOps      1577731                       # Number of ops (including micro ops) which were discarded before commit (Count)
system.cpu.fetch2.intInstructions            56676815                       # Number of integer instructions successfully decoded (Count)
system.cpu.fetch2.fpInstructions             14060806                       # Number of floating point instructions successfully decoded (Count)
system.cpu.fetch2.vecInstructions                   0                       # Number of SIMD instructions successfully decoded (Count)
system.cpu.fetch2.loadInstructions           33130622                       # Number of memory load instructions successfully decoded (Count)
system.cpu.fetch2.storeInstructions          12214817                       # Number of memory store instructions successfully decoded (Count)
system.cpu.fetch2.amoInstructions                   0                       # Number of memory atomic instructions successfully decoded (Count)
system.cpu.fetchStats0.numInsts                     0                       # Number of instructions fetched (thread level) (Count)
system.cpu.fetchStats0.numOps                       0                       # Number of ops (including micro ops) fetched (thread level) (Count)
system.cpu.fetchStats0.fetchRate                    0                       # Number of inst fetches per cycle ((Count/Cycle))
system.cpu.fetchStats0.branchRate                   0                       # Number of branch fetches per cycle (Ratio)
system.cpu.fetchStats0.numFetchSuspends             0                       # Number of times Execute suspended instruction fetching (Count)
system.cpu.icache.demandHits::cpu.inst       17626290                       # number of demand (read+write) hits (Count)
system.cpu.icache.demandHits::total          17626290                       # number of demand (read+write) hits (Count)
system.cpu.icache.overallHits::cpu.inst      17626290                       # number of overall hits (Count)
system.cpu.icache.overallHits::total         17626290                       # number of overall hits (Count)
system.cpu.icache.demandMisses::cpu.inst         2512                       # number of demand (read+write) misses (Count)
system.cpu.icache.demandMisses::total            2512                       # number of demand (read+write) misses (Count)
system.cpu.icache.overallMisses::cpu.inst         2512                       # number of overall misses (Count)
system.cpu.icache.overallMisses::total           2512                       # number of overall misses (Count)
system.cpu.icache.demandMissLatency::cpu.inst    156963035                       # number of demand (read+write) miss ticks (Tick)
system.cpu.icache.demandMissLatency::total    156963035                       # number of demand (read+write) miss ticks (Tick)
system.cpu.icache.overallMissLatency::cpu.inst    156963035                       # number of overall miss ticks (Tick)
system.cpu.icache.overallMissLatency::total    156963035                       # number of overall miss ticks (Tick)
system.cpu.icache.demandAccesses::cpu.inst     17628802                       # number of demand (read+write) accesses (Count)
system.cpu.icache.demandAccesses::total      17628802                       # number of demand (read+write) accesses (Count)
system.cpu.icache.overallAccesses::cpu.inst     17628802                       # number of overall (read+write) accesses (Count)
system.cpu.icache.overallAccesses::total     17628802                       # number of overall (read+write) accesses (Count)
system.cpu.icache.demandMissRate::cpu.inst     0.000142                       # miss rate for demand accesses (Ratio)
system.cpu.icache.demandMissRate::total      0.000142                       # miss rate for demand accesses (Ratio)
system.cpu.icache.overallMissRate::cpu.inst     0.000142                       # miss rate for overall accesses (Ratio)
system.cpu.icache.overallMissRate::total     0.000142                       # miss rate for overall accesses (Ratio)
system.cpu.icache.demandAvgMissLatency::cpu.inst 62485.284634                       # average overall miss latency in ticks ((Tick/Count))
system.cpu.icache.demandAvgMissLatency::total 62485.284634                       # average overall miss latency in ticks ((Tick/Count))
system.cpu.icache.overallAvgMissLatency::cpu.inst 62485.284634                       # average overall miss latency ((Tick/Count))
system.cpu.icache.overallAvgMissLatency::total 62485.284634                       # average overall miss latency ((Tick/Count))
system.cpu.icache.blockedCycles::no_mshrs            0                       # number of cycles access was blocked (Cycle)
system.cpu.icache.blockedCycles::no_targets            0                       # number of cycles access was blocked (Cycle)
system.cpu.icache.blockedCauses::no_mshrs            0                       # number of times access was blocked (Count)
system.cpu.icache.blockedCauses::no_targets            0                       # number of times access was blocked (Count)
system.cpu.icache.avgBlocked::no_mshrs            nan                       # average number of cycles each access was blocked ((Cycle/Count))
system.cpu.icache.avgBlocked::no_targets          nan                       # average number of cycles each access was blocked ((Cycle/Count))
system.cpu.icache.demandMshrMisses::cpu.inst         2512                       # number of demand (read+write) MSHR misses (Count)
system.cpu.icache.demandMshrMisses::total         2512                       # number of demand (read+write) MSHR misses (Count)
system.cpu.icache.overallMshrMisses::cpu.inst         2512                       # number of overall MSHR misses (Count)
system.cpu.icache.overallMshrMisses::total         2512                       # number of overall MSHR misses (Count)
system.cpu.icache.demandMshrMissLatency::cpu.inst    154246133                       # number of demand (read+write) MSHR miss ticks (Tick)
system.cpu.icache.demandMshrMissLatency::total    154246133                       # number of demand (read+write) MSHR miss ticks (Tick)
system.cpu.icache.overallMshrMissLatency::cpu.inst    154246133                       # number of overall MSHR miss ticks (Tick)
system.cpu.icache.overallMshrMissLatency::total    154246133                       # number of overall MSHR miss ticks (Tick)
system.cpu.icache.demandMshrMissRate::cpu.inst     0.000142                       # mshr miss ratio for demand accesses (Ratio)
system.cpu.icache.demandMshrMissRate::total     0.000142                       # mshr miss ratio for demand accesses (Ratio)
system.cpu.icache.overallMshrMissRate::cpu.inst     0.000142                       # mshr miss ratio for overall accesses (Ratio)
system.cpu.icache.overallMshrMissRate::total     0.000142                       # mshr miss ratio for overall accesses (Ratio)
system.cpu.icache.demandAvgMshrMissLatency::cpu.inst 61403.715366                       # average overall mshr miss latency ((Tick/Count))
system.cpu.icache.demandAvgMshrMissLatency::total 61403.715366                       # average overall mshr miss latency ((Tick/Count))
system.cpu.icache.overallAvgMshrMissLatency::cpu.inst 61403.715366                       # average overall mshr miss latency ((Tick/Count))
system.cpu.icache.overallAvgMshrMissLatency::total 61403.715366                       # average overall mshr miss latency ((Tick/Count))
system.cpu.icache.replacements                   1609                       # number of replacements (Count)
system.cpu.icache.ReadReq.hits::cpu.inst     17626290                       # number of ReadReq hits (Count)
system.cpu.icache.ReadReq.hits::total        17626290                       # number of ReadReq hits (Count)
system.cpu.icache.ReadReq.misses::cpu.inst         2512                       # number of ReadReq misses (Count)
system.cpu.icache.ReadReq.misses::total          2512                       # number of ReadReq misses (Count)
system.cpu.icache.ReadReq.missLatency::cpu.inst    156963035                       # number of ReadReq miss ticks (Tick)
system.cpu.icache.ReadReq.missLatency::total    156963035                       # number of ReadReq miss ticks (Tick)
system.cpu.icache.ReadReq.accesses::cpu.inst     17628802                       # number of ReadReq accesses(hits+misses) (Count)
system.cpu.icache.ReadReq.accesses::total     17628802                       # number of ReadReq accesses(hits+misses) (Count)
system.cpu.icache.ReadReq.missRate::cpu.inst     0.000142                       # miss rate for ReadReq accesses (Ratio)
system.cpu.icache.ReadReq.missRate::total     0.000142                       # miss rate for ReadReq accesses (Ratio)
system.cpu.icache.ReadReq.avgMissLatency::cpu.inst 62485.284634                       # average ReadReq miss latency ((Tick/Count))
system.cpu.icache.ReadReq.avgMissLatency::total 62485.284634                       # average ReadReq miss latency ((Tick/Count))
system.cpu.icache.ReadReq.mshrMisses::cpu.inst         2512                       # number of ReadReq MSHR misses (Count)
system.cpu.icache.ReadReq.mshrMisses::total         2512                       # number of ReadReq MSHR misses (Count)
system.cpu.icache.ReadReq.mshrMissLatency::cpu.inst    154246133                       # number of ReadReq MSHR miss ticks (Tick)
system.cpu.icache.ReadReq.mshrMissLatency::total    154246133                       # number of ReadReq MSHR miss ticks (Tick)
system.cpu.icache.ReadReq.mshrMissRate::cpu.inst     0.000142                       # mshr miss rate for ReadReq accesses (Ratio)
system.cpu.icache.ReadReq.mshrMissRate::total     0.000142                       # mshr miss rate for ReadReq accesses (Ratio)
system.cpu.icache.ReadReq.avgMshrMissLatency::cpu.inst 61403.715366                       # average ReadReq mshr miss latency ((Tick/Count))
system.cpu.icache.ReadReq.avgMshrMissLatency::total 61403.715366                       # average ReadReq mshr miss latency ((Tick/Count))
system.cpu.icache.power_state.pwrStateResidencyTicks::UNDEFINED  78311278325                       # Cumulative time (in ticks) in various power states (Tick)
system.cpu.icache.tags.tagsInUse           865.965951                       # Average ticks per tags in use ((Tick/Count))
system.cpu.icache.tags.totalRefs             17628801                       # Total number of references to valid blocks. (Count)
system.cpu.icache.tags.sampledRefs               2511                       # Sample count of references to valid blocks. (Count)
system.cpu.icache.tags.avgRefs            7020.629630                       # Average number of references to valid blocks. ((Count/Count))
system.cpu.icache.tags.warmupTick               96839                       # The tick when the warmup percentage was hit. (Tick)
system.cpu.icache.tags.occupancies::cpu.inst   865.965951                       # Average occupied blocks per tick, per requestor ((Count/Tick))
system.cpu.icache.tags.avgOccs::cpu.inst     0.845670                       # Average percentage of cache occupancy ((Ratio/Tick))
system.cpu.icache.tags.avgOccs::total        0.845670                       # Average percentage of cache occupancy ((Ratio/Tick))
system.cpu.icache.tags.occupanciesTaskId::1024          902                       # Occupied blocks per task id (Count)
system.cpu.icache.tags.ageTaskId_1024::0           40                       # Occupied blocks per task id, per block age (Count)
system.cpu.icache.tags.ageTaskId_1024::2           80                       # Occupied blocks per task id, per block age (Count)
system.cpu.icache.tags.ageTaskId_1024::3           64                       # Occupied blocks per task id, per block age (Count)
system.cpu.icache.tags.ageTaskId_1024::4          718                       # Occupied blocks per task id, per block age (Count)
system.cpu.icache.tags.ratioOccsTaskId::1024     0.880859                       # Ratio of occupied blocks and all blocks, per task id (Ratio)
system.cpu.icache.tags.tagAccesses           35260115                       # Number of tag accesses (Count)
system.cpu.icache.tags.dataAccesses          35260115                       # Number of data accesses (Count)
system.cpu.icache.tags.power_state.pwrStateResidencyTicks::UNDEFINED  78311278325                       # Cumulative time (in ticks) in various power states (Tick)
system.cpu.mmu.dtb.readHits                         0                       # read hits (Count)
system.cpu.mmu.dtb.readMisses                       0                       # read misses (Count)
system.cpu.mmu.dtb.readAccesses                     0                       # read accesses (Count)
system.cpu.mmu.dtb.writeHits                        0                       # write hits (Count)
system.cpu.mmu.dtb.writeMisses                      0                       # write misses (Count)
system.cpu.mmu.dtb.writeAccesses                    0                       # write accesses (Count)
system.cpu.mmu.dtb.hits                             0                       # Total TLB (read and write) hits (Count)
system.cpu.mmu.dtb.misses                           0                       # Total TLB (read and write) misses (Count)
system.cpu.mmu.dtb.accesses                         0                       # Total TLB (read and write) accesses (Count)
system.cpu.mmu.dtb.walker.num_4kb_walks             0                       # Completed page walks with 4KB pages (Count)
system.cpu.mmu.dtb.walker.num_2mb_walks             0                       # Completed page walks with 2MB pages (Count)
system.cpu.mmu.dtb.walker.power_state.pwrStateResidencyTicks::UNDEFINED  78311278325                       # Cumulative time (in ticks) in various power states (Tick)
system.cpu.mmu.itb.readHits                         0                       # read hits (Count)
system.cpu.mmu.itb.readMisses                       0                       # read misses (Count)
system.cpu.mmu.itb.readAccesses                     0                       # read accesses (Count)
system.cpu.mmu.itb.writeHits                        0                       # write hits (Count)
system.cpu.mmu.itb.writeMisses                      0                       # write misses (Count)
system.cpu.mmu.itb.writeAccesses                    0                       # write accesses (Count)
system.cpu.mmu.itb.hits                             0                       # Total TLB (read and write) hits (Count)
system.cpu.mmu.itb.misses                           0                       # Total TLB (read and write) misses (Count)
system.cpu.mmu.itb.accesses                         0                       # Total TLB (read and write) accesses (Count)
system.cpu.mmu.itb.walker.num_4kb_walks             0                       # Completed page walks with 4KB pages (Count)
system.cpu.mmu.itb.walker.num_2mb_walks             0                       # Completed page walks with 2MB pages (Count)
system.cpu.mmu.itb.walker.power_state.pwrStateResidencyTicks::UNDEFINED  78311278325                       # Cumulative time (in ticks) in various power states (Tick)
system.cpu.power_state.pwrStateResidencyTicks::ON  78311278325                       # Cumulative time (in ticks) in various power states (Tick)
system.cpu.thread_0.numInsts                106697546                       # Number of Instructions committed (Count)
system.cpu.thread_0.numOps                  106697852                       # Number of Ops committed (Count)
system.cpu.thread_0.numMemRefs                      0                       # Number of Memory References (Count)
system.cpu.workload.numSyscalls                    67                       # Number of system calls (Count)
system.l2bus.transDist::ReadResp                38701                       # Transaction distribution (Count)
system.l2bus.transDist::WritebackDirty          54634                       # Transaction distribution (Count)
system.l2bus.transDist::CleanEvict              17757                       # Transaction distribution (Count)
system.l2bus.transDist::ReadExReq               24365                       # Transaction distribution (Count)
system.l2bus.transDist::ReadExResp              24365                       # Transaction distribution (Count)
system.l2bus.transDist::ReadSharedReq           38702                       # Transaction distribution (Count)
system.l2bus.pktCount_system.cpu.icache.mem_side_port::system.l2cache.cpu_side_port         6632                       # Packet count per connected requestor and responder (Count)
system.l2bus.pktCount_system.cpu.dcache.mem_side_port::system.l2cache.cpu_side_port       180641                       # Packet count per connected requestor and responder (Count)
system.l2bus.pktCount::total                   187273                       # Packet count per connected requestor and responder (Count)
system.l2bus.pktSize_system.cpu.icache.mem_side_port::system.l2cache.cpu_side_port       160704                       # Cumulative packet size per connected requestor and responder (Byte)
system.l2bus.pktSize_system.cpu.dcache.mem_side_port::system.l2cache.cpu_side_port      7054912                       # Cumulative packet size per connected requestor and responder (Byte)
system.l2bus.pktSize::total                   7215616                       # Cumulative packet size per connected requestor and responder (Byte)
system.l2bus.snoops                             11251                       # Total snoops (Count)
system.l2bus.snoopTraffic                      317184                       # Total snoop traffic (Byte)
system.l2bus.snoopFanout::samples               74318                       # Request fanout histogram (Count)
system.l2bus.snoopFanout::mean               0.008571                       # Request fanout histogram (Count)
system.l2bus.snoopFanout::stdev              0.092184                       # Request fanout histogram (Count)
system.l2bus.snoopFanout::underflows                0      0.00%      0.00% # Request fanout histogram (Count)
system.l2bus.snoopFanout::0                     73681     99.14%     99.14% # Request fanout histogram (Count)
system.l2bus.snoopFanout::1                       637      0.86%    100.00% # Request fanout histogram (Count)
system.l2bus.snoopFanout::2                         0      0.00%    100.00% # Request fanout histogram (Count)
system.l2bus.snoopFanout::overflows                 0      0.00%    100.00% # Request fanout histogram (Count)
system.l2bus.snoopFanout::min_value                 0                       # Request fanout histogram (Count)
system.l2bus.snoopFanout::max_value                 1                       # Request fanout histogram (Count)
system.l2bus.snoopFanout::total                 74318                       # Request fanout histogram (Count)
system.l2bus.power_state.pwrStateResidencyTicks::UNDEFINED  78311278325                       # Cumulative time (in ticks) in various power states (Tick)
system.l2bus.reqLayer0.occupancy            120947583                       # Layer occupancy (ticks) (Tick)
system.l2bus.reqLayer0.utilization                0.0                       # Layer utilization (Ratio)
system.l2bus.respLayer0.occupancy             4075893                       # Layer occupancy (ticks) (Tick)
system.l2bus.respLayer0.utilization               0.0                       # Layer utilization (Ratio)
system.l2bus.respLayer1.occupancy            98280765                       # Layer occupancy (ticks) (Tick)
system.l2bus.respLayer1.utilization               0.0                       # Layer utilization (Ratio)
system.l2bus.snoop_filter.totRequests          124207                       # Total number of requests made to the snoop filter. (Count)
system.l2bus.snoop_filter.hitSingleRequests        61141                       # Number of requests hitting in the snoop filter with a single holder of the requested data. (Count)
system.l2bus.snoop_filter.hitMultiRequests            3                       # Number of requests hitting in the snoop filter with multiple (>1) holders of the requested data. (Count)
system.l2bus.snoop_filter.totSnoops               633                       # Total number of snoops made to the snoop filter. (Count)
system.l2bus.snoop_filter.hitSingleSnoops          633                       # Number of snoops hitting in the snoop filter with a single holder of the requested data. (Count)
system.l2bus.snoop_filter.hitMultiSnoops            0                       # Number of snoops hitting in the snoop filter with multiple (>1) holders of the requested data. (Count)
system.l2cache.demandHits::cpu.inst               767                       # number of demand (read+write) hits (Count)
system.l2cache.demandHits::cpu.data             34663                       # number of demand (read+write) hits (Count)
system.l2cache.demandHits::total                35430                       # number of demand (read+write) hits (Count)
system.l2cache.overallHits::cpu.inst              767                       # number of overall hits (Count)
system.l2cache.overallHits::cpu.data            34663                       # number of overall hits (Count)
system.l2cache.overallHits::total               35430                       # number of overall hits (Count)
system.l2cache.demandMisses::cpu.inst            1745                       # number of demand (read+write) misses (Count)
system.l2cache.demandMisses::cpu.data           25892                       # number of demand (read+write) misses (Count)
system.l2cache.demandMisses::total              27637                       # number of demand (read+write) misses (Count)
system.l2cache.overallMisses::cpu.inst           1745                       # number of overall misses (Count)
system.l2cache.overallMisses::cpu.data          25892                       # number of overall misses (Count)
system.l2cache.overallMisses::total             27637                       # number of overall misses (Count)
system.l2cache.demandMissLatency::cpu.inst    141455270                       # number of demand (read+write) miss ticks (Tick)
system.l2cache.demandMissLatency::cpu.data   2127405678                       # number of demand (read+write) miss ticks (Tick)
system.l2cache.demandMissLatency::total    2268860948                       # number of demand (read+write) miss ticks (Tick)
system.l2cache.overallMissLatency::cpu.inst    141455270                       # number of overall miss ticks (Tick)
system.l2cache.overallMissLatency::cpu.data   2127405678                       # number of overall miss ticks (Tick)
system.l2cache.overallMissLatency::total   2268860948                       # number of overall miss ticks (Tick)
system.l2cache.demandAccesses::cpu.inst          2512                       # number of demand (read+write) accesses (Count)
system.l2cache.demandAccesses::cpu.data         60555                       # number of demand (read+write) accesses (Count)
system.l2cache.demandAccesses::total            63067                       # number of demand (read+write) accesses (Count)
system.l2cache.overallAccesses::cpu.inst         2512                       # number of overall (read+write) accesses (Count)
system.l2cache.overallAccesses::cpu.data        60555                       # number of overall (read+write) accesses (Count)
system.l2cache.overallAccesses::total           63067                       # number of overall (read+write) accesses (Count)
system.l2cache.demandMissRate::cpu.inst      0.694666                       # miss rate for demand accesses (Ratio)
system.l2cache.demandMissRate::cpu.data      0.427578                       # miss rate for demand accesses (Ratio)
system.l2cache.demandMissRate::total         0.438216                       # miss rate for demand accesses (Ratio)
system.l2cache.overallMissRate::cpu.inst     0.694666                       # miss rate for overall accesses (Ratio)
system.l2cache.overallMissRate::cpu.data     0.427578                       # miss rate for overall accesses (Ratio)
system.l2cache.overallMissRate::total        0.438216                       # miss rate for overall accesses (Ratio)
system.l2cache.demandAvgMissLatency::cpu.inst 81063.191977                       # average overall miss latency in ticks ((Tick/Count))
system.l2cache.demandAvgMissLatency::cpu.data 82164.594392                       # average overall miss latency in ticks ((Tick/Count))
[...]
system.mem_ctrl.wrPerTurnAround::17                11      3.81%     49.83% # Writes before turning the bus around for reads (Count)
system.mem_ctrl.wrPerTurnAround::18               144     49.83%     99.65% # Writes before turning the bus around for reads (Count)
system.mem_ctrl.wrPerTurnAround::19                 1      0.35%    100.00% # Writes before turning the bus around for reads (Count)
system.mem_ctrl.wrPerTurnAround::total            289                       # Writes before turning the bus around for reads (Count)
system.mem_ctrl.bytesReadWrQ                      576                       # Total number of bytes read from write queue (Byte)
system.mem_ctrl.bytesReadSys                  1768640                       # Total read bytes from the system interface side (Byte)
system.mem_ctrl.bytesWrittenSys                317184                       # Total written bytes from the system interface side (Byte)
system.mem_ctrl.avgRdBWSys               22584741.78725520                       # Average system read bandwidth in Byte/s ((Byte/Second))
system.mem_ctrl.avgWrBWSys               4050297.82151752                       # Average system write bandwidth in Byte/s ((Byte/Second))
system.mem_ctrl.totGap                    78311259931                       # Total gap between requests (Tick)
system.mem_ctrl.avgGap                     2402849.25                       # Average gap between requests ((Tick/Count))
system.mem_ctrl.requestorReadBytes::cpu.inst       111552                       # Per-requestor bytes read from memory (Byte)
system.mem_ctrl.requestorReadBytes::cpu.data      1656512                       # Per-requestor bytes read from memory (Byte)
system.mem_ctrl.requestorWriteBytes::writebacks       315264                       # Per-requestor bytes write to memory (Byte)
system.mem_ctrl.requestorReadRate::cpu.inst 1424469.149093027692                       # Per-requestor bytes read from memory rate ((Byte/Second))
system.mem_ctrl.requestorReadRate::cpu.data 21152917.375774431974                       # Per-requestor bytes read from memory rate ((Byte/Second))
system.mem_ctrl.requestorWriteRate::writebacks 4025780.280225045048                       # Per-requestor bytes write to memory rate ((Byte/Second))
system.mem_ctrl.requestorReadAccesses::cpu.inst         1743                       # Per-requestor read serviced memory accesses (Count)
system.mem_ctrl.requestorReadAccesses::cpu.data        25892                       # Per-requestor read serviced memory accesses (Count)
system.mem_ctrl.requestorWriteAccesses::writebacks         4956                       # Per-requestor write serviced memory accesses (Count)
system.mem_ctrl.requestorReadTotalLat::cpu.inst     57625197                       # Per-requestor read total memory access latency (Tick)
system.mem_ctrl.requestorReadTotalLat::cpu.data    883785956                       # Per-requestor read total memory access latency (Tick)
system.mem_ctrl.requestorWriteTotalLat::writebacks 1954246135361                       # Per-requestor write total memory access latency (Tick)
system.mem_ctrl.requestorReadAvgLat::cpu.inst     33060.93                       # Per-requestor read average memory access latency ((Tick/Count))
system.mem_ctrl.requestorReadAvgLat::cpu.data     34133.55                       # Per-requestor read average memory access latency ((Tick/Count))
system.mem_ctrl.requestorWriteAvgLat::writebacks 394319236.35                       # Per-requestor write average memory access latency ((Tick/Count))
system.mem_ctrl.dram.bytesRead::cpu.inst       111552                       # Number of bytes read from this memory (Byte)
system.mem_ctrl.dram.bytesRead::cpu.data      1657088                       # Number of bytes read from this memory (Byte)
system.mem_ctrl.dram.bytesRead::total         1768640                       # Number of bytes read from this memory (Byte)
system.mem_ctrl.dram.bytesInstRead::cpu.inst       111552                       # Number of instructions bytes read from this memory (Byte)
system.mem_ctrl.dram.bytesInstRead::total       111552                       # Number of instructions bytes read from this memory (Byte)
system.mem_ctrl.dram.bytesWritten::writebacks       317184                       # Number of bytes written to this memory (Byte)
system.mem_ctrl.dram.bytesWritten::total       317184                       # Number of bytes written to this memory (Byte)
system.mem_ctrl.dram.numReads::cpu.inst          1743                       # Number of read requests responded to by this memory (Count)
system.mem_ctrl.dram.numReads::cpu.data         25892                       # Number of read requests responded to by this memory (Count)
system.mem_ctrl.dram.numReads::total            27635                       # Number of read requests responded to by this memory (Count)
system.mem_ctrl.dram.numWrites::writebacks         4956                       # Number of write requests responded to by this memory (Count)
system.mem_ctrl.dram.numWrites::total            4956                       # Number of write requests responded to by this memory (Count)
system.mem_ctrl.dram.bwRead::cpu.inst         1424469                       # Total read bandwidth from this memory ((Byte/Second))
system.mem_ctrl.dram.bwRead::cpu.data        21160273                       # Total read bandwidth from this memory ((Byte/Second))
system.mem_ctrl.dram.bwRead::total           22584742                       # Total read bandwidth from this memory ((Byte/Second))
system.mem_ctrl.dram.bwInstRead::cpu.inst      1424469                       # Instruction read bandwidth from this memory ((Byte/Second))
system.mem_ctrl.dram.bwInstRead::total        1424469                       # Instruction read bandwidth from this memory ((Byte/Second))
system.mem_ctrl.dram.bwWrite::writebacks      4050298                       # Write bandwidth from this memory ((Byte/Second))
system.mem_ctrl.dram.bwWrite::total           4050298                       # Write bandwidth from this memory ((Byte/Second))
system.mem_ctrl.dram.bwTotal::writebacks      4050298                       # Total bandwidth to/from this memory ((Byte/Second))
system.mem_ctrl.dram.bwTotal::cpu.inst        1424469                       # Total bandwidth to/from this memory ((Byte/Second))
system.mem_ctrl.dram.bwTotal::cpu.data       21160273                       # Total bandwidth to/from this memory ((Byte/Second))
system.mem_ctrl.dram.bwTotal::total          26635040                       # Total bandwidth to/from this memory ((Byte/Second))
system.mem_ctrl.dram.readBursts                 27626                       # Number of DRAM read bursts (Count)
system.mem_ctrl.dram.writeBursts                 4926                       # Number of DRAM write bursts (Count)
system.mem_ctrl.dram.perBankRdBursts::0          3291                       # Per bank write bursts (Count)
system.mem_ctrl.dram.perBankRdBursts::1          3454                       # Per bank write bursts (Count)
system.mem_ctrl.dram.perBankRdBursts::2          3428                       # Per bank write bursts (Count)
system.mem_ctrl.dram.perBankRdBursts::3          3577                       # Per bank write bursts (Count)
system.mem_ctrl.dram.perBankRdBursts::4          3536                       # Per bank write bursts (Count)
system.mem_ctrl.dram.perBankRdBursts::5          3507                       # Per bank write bursts (Count)
system.mem_ctrl.dram.perBankRdBursts::6          3468                       # Per bank write bursts (Count)
system.mem_ctrl.dram.perBankRdBursts::7          3365                       # Per bank write bursts (Count)
system.mem_ctrl.dram.perBankWrBursts::0           534                       # Per bank write bursts (Count)
system.mem_ctrl.dram.perBankWrBursts::1           618                       # Per bank write bursts (Count)
system.mem_ctrl.dram.perBankWrBursts::2           666                       # Per bank write bursts (Count)
system.mem_ctrl.dram.perBankWrBursts::3           671                       # Per bank write bursts (Count)
system.mem_ctrl.dram.perBankWrBursts::4           695                       # Per bank write bursts (Count)
system.mem_ctrl.dram.perBankWrBursts::5           616                       # Per bank write bursts (Count)
system.mem_ctrl.dram.perBankWrBursts::6           575                       # Per bank write bursts (Count)
system.mem_ctrl.dram.perBankWrBursts::7           551                       # Per bank write bursts (Count)
system.mem_ctrl.dram.totQLat                311814613                       # Total ticks spent queuing (Tick)
system.mem_ctrl.dram.totBusLat              118515540                       # Total ticks spent in databus transfers (Tick)
system.mem_ctrl.dram.totMemAccLat           941411153                       # Total ticks spent from burst creation until serviced by the DRAM (Tick)
system.mem_ctrl.dram.avgQLat                 11287.00                       # Average queueing delay per DRAM burst ((Tick/Count))
system.mem_ctrl.dram.avgBusLat                4290.00                       # Average bus latency per DRAM burst ((Tick/Count))
system.mem_ctrl.dram.avgMemAccLat            34077.00                       # Average memory access latency per DRAM burst ((Tick/Count))
system.mem_ctrl.dram.readRowHits                19307                       # Number of row buffer hits during reads (Count)
system.mem_ctrl.dram.writeRowHits                3859                       # Number of row buffer hits during writes (Count)
system.mem_ctrl.dram.readRowHitRate             69.89                       # Row buffer hit rate for reads (Ratio)
system.mem_ctrl.dram.writeRowHitRate            78.34                       # Row buffer hit rate for writes (Ratio)
system.mem_ctrl.dram.bytesPerActivate::samples         9381                       # Bytes accessed per row activation (Byte)
system.mem_ctrl.dram.bytesPerActivate::mean   221.977188                       # Bytes accessed per row activation (Byte)
system.mem_ctrl.dram.bytesPerActivate::gmean   128.954915                       # Bytes accessed per row activation (Byte)
system.mem_ctrl.dram.bytesPerActivate::stdev   283.758872                       # Bytes accessed per row activation (Byte)
system.mem_ctrl.dram.bytesPerActivate::0-127         5236     55.81%     55.81% # Bytes accessed per row activation (Byte)
system.mem_ctrl.dram.bytesPerActivate::128-255         1792     19.10%     74.92% # Bytes accessed per row activation (Byte)
system.mem_ctrl.dram.bytesPerActivate::256-383          768      8.19%     83.10% # Bytes accessed per row activation (Byte)
system.mem_ctrl.dram.bytesPerActivate::384-511          291      3.10%     86.21% # Bytes accessed per row activation (Byte)
system.mem_ctrl.dram.bytesPerActivate::512-639          203      2.16%     88.37% # Bytes accessed per row activation (Byte)
system.mem_ctrl.dram.bytesPerActivate::640-767          155      1.65%     90.02% # Bytes accessed per row activation (Byte)
system.mem_ctrl.dram.bytesPerActivate::768-895          111      1.18%     91.21% # Bytes accessed per row activation (Byte)
system.mem_ctrl.dram.bytesPerActivate::896-1023          131      1.40%     92.60% # Bytes accessed per row activation (Byte)
system.mem_ctrl.dram.bytesPerActivate::1024-1151          694      7.40%    100.00% # Bytes accessed per row activation (Byte)
system.mem_ctrl.dram.bytesPerActivate::total         9381                       # Bytes accessed per row activation (Byte)
system.mem_ctrl.dram.dramBytesRead            1768064                       # Total bytes read (Byte)
system.mem_ctrl.dram.dramBytesWritten          315264                       # Total bytes written (Byte)
system.mem_ctrl.dram.avgRdBW                22.577387                       # Average DRAM read bandwidth in MiBytes/s ((Byte/Second))
system.mem_ctrl.dram.avgWrBW                 4.025780                       # Average DRAM write bandwidth in MiBytes/s ((Byte/Second))
system.mem_ctrl.dram.peakBW                  14918.00                       # Theoretical peak bandwidth in MiByte/s ((Byte/Second))
system.mem_ctrl.dram.busUtil                     0.18                       # Data bus utilization in percentage (Ratio)
system.mem_ctrl.dram.busUtilRead                 0.15                       # Data bus utilization in percentage for reads (Ratio)
system.mem_ctrl.dram.busUtilWrite                0.03                       # Data bus utilization in percentage for writes (Ratio)
system.mem_ctrl.dram.pageHitRate                71.17                       # Row buffer hit rate, read and write combined (Ratio)
system.mem_ctrl.dram.power_state.pwrStateResidencyTicks::UNDEFINED  78311278325                       # Cumulative time (in ticks) in various power states (Tick)
system.mem_ctrl.dram.rank0.actEnergy     34974788.991999                       # Energy for activate commands per rank (pJ) (Joule)
system.mem_ctrl.dram.rank0.preEnergy     18805527.840000                       # Energy for precharge commands per rank (pJ) (Joule)
system.mem_ctrl.dram.rank0.readEnergy    44304147.712000                       # Energy for read commands per rank (pJ) (Joule)
system.mem_ctrl.dram.rank0.writeEnergy   6970487.040000                       # Energy for write commands per rank (pJ) (Joule)
system.mem_ctrl.dram.rank0.refreshEnergy 887005147.600138                       # Energy for refresh commands per rank (pJ) (Joule)
system.mem_ctrl.dram.rank0.actBackEnergy 1528537410.400462                       # Energy for active background per rank (pJ) (Joule)
system.mem_ctrl.dram.rank0.preBackEnergy 5668562601.855655                       # Energy for precharge background per rank (pJ) (Joule)
system.mem_ctrl.dram.rank0.actPowerDownEnergy            0                       # Energy for active power-down per rank (pJ) (Joule)
system.mem_ctrl.dram.rank0.prePowerDownEnergy            0                       # Energy for precharge power-down per rank (pJ) (Joule)
system.mem_ctrl.dram.rank0.selfRefreshEnergy            0                       # Energy for self refresh per rank (pJ) (Joule)
system.mem_ctrl.dram.rank0.totalEnergy   8189160111.440687                       # Total energy per rank (pJ) (Joule)
system.mem_ctrl.dram.rank0.averagePower    104.571912                       # Core power per rank (mW) (Watt)
system.mem_ctrl.dram.rank0.totalIdleTime            0                       # Total Idle time Per DRAM Rank (Tick)
system.mem_ctrl.dram.rank0.pwrStateTime::IDLE  64171581409                       # Time in different power states (Tick)
system.mem_ctrl.dram.rank0.pwrStateTime::REF   1610080000                       # Time in different power states (Tick)
system.mem_ctrl.dram.rank0.pwrStateTime::SREF            0                       # Time in different power states (Tick)
system.mem_ctrl.dram.rank0.pwrStateTime::PRE_PDN            0                       # Time in different power states (Tick)
system.mem_ctrl.dram.rank0.pwrStateTime::ACT  12529616916                       # Time in different power states (Tick)
system.mem_ctrl.dram.rank0.pwrStateTime::ACT_PDN            0                       # Time in different power states (Tick)
system.mem_ctrl.power_state.pwrStateResidencyTicks::UNDEFINED  78311278325                       # Cumulative time (in ticks) in various power states (Tick)
system.membus.transDist::ReadResp               11788                       # Transaction distribution (Count)
system.membus.transDist::WritebackDirty          4956                       # Transaction distribution (Count)
system.membus.transDist::CleanEvict              5885                       # Transaction distribution (Count)
system.membus.transDist::ReadExReq              15847                       # Transaction distribution (Count)
system.membus.transDist::ReadExResp             15847                       # Transaction distribution (Count)
system.membus.transDist::ReadSharedReq          11788                       # Transaction distribution (Count)
system.membus.pktCount_system.l2cache.mem_side_port::system.mem_ctrl.port        66111                       # Packet count per connected requestor and responder (Count)
system.membus.pktSize_system.l2cache.mem_side_port::system.mem_ctrl.port      2085824                       # Cumulative packet size per connected requestor and responder (Byte)
system.membus.snoops                                0                       # Total snoops (Count)
system.membus.snoopTraffic                          0                       # Total snoop traffic (Byte)
system.membus.snoopFanout::samples              27635                       # Request fanout histogram (Count)
system.membus.snoopFanout::mean                     0                       # Request fanout histogram (Count)
system.membus.snoopFanout::stdev                    0                       # Request fanout histogram (Count)
system.membus.snoopFanout::underflows               0      0.00%      0.00% # Request fanout histogram (Count)
system.membus.snoopFanout::0                    27635    100.00%    100.00% # Request fanout histogram (Count)
system.membus.snoopFanout::1                        0      0.00%    100.00% # Request fanout histogram (Count)
system.membus.snoopFanout::overflows                0      0.00%    100.00% # Request fanout histogram (Count)
system.membus.snoopFanout::min_value                0                       # Request fanout histogram (Count)
system.membus.snoopFanout::max_value                0                       # Request fanout histogram (Count)
system.membus.snoopFanout::total                27635                       # Request fanout histogram (Count)
system.membus.power_state.pwrStateResidencyTicks::UNDEFINED  78311278325                       # Cumulative time (in ticks) in various power states (Tick)
system.membus.reqLayer0.occupancy            31540300                       # Layer occupancy (ticks) (Tick)
system.membus.reqLayer0.utilization               0.0                       # Layer utilization (Ratio)
system.membus.respLayer0.occupancy           87009149                       # Layer occupancy (ticks) (Tick)
system.membus.respLayer0.utilization              0.0                       # Layer utilization (Ratio)
system.membus.snoop_filter.totRequests          38476                       # Total number of requests made to the snoop filter. (Count)
system.membus.snoop_filter.hitSingleRequests        10841                       # Number of requests hitting in the snoop filter with a single holder of the requested data. (Count)
system.membus.snoop_filter.hitMultiRequests            0                       # Number of requests hitting in the snoop filter with multiple (>1) holders of the requested data. (Count)
system.membus.snoop_filter.totSnoops                0                       # Total number of snoops made to the snoop filter. (Count)
system.membus.snoop_filter.hitSingleSnoops            0                       # Number of snoops hitting in the snoop filter with a single holder of the requested data. (Count)
system.membus.snoop_filter.hitMultiSnoops            0                       # Number of snoops hitting in the snoop filter with multiple (>1) holders of the requested data. (Count)
system.workload.inst.arm                            0                       # number of arm instructions executed (Count)
system.workload.inst.quiesce                        0                       # number of quiesce instructions executed (Count)
system.cpu.idleCycles                        11660203                       # Total number of cycles that the object has spent stopped (Unspecified)
system.cpu.tickCycles                       133092622                       # Number of cycles that the object actually ticked (Unspecified)

---------- End Simulation Statistics   ----------
