
---------- Begin Simulation Statistics ----------
simSeconds                                   0.025508                       # Number of seconds simulated (Second)
simTicks                                  25508411303                       # Number of ticks simulated (Tick)
finalTick                                 25508411303                       # Number of ticks from beginning of simulation (restored from checkpoints and never reset) (Tick)
simFreq                                  1000000000000                       # The number of ticks per simulated second ((Tick/Second))
hostSeconds                                     91.72                       # Real time elapsed on the host (Second)
hostTickRate                                278121286                       # The number of ticks simulated per host second (ticks/s) ((Tick/Second))
hostMemory                                    2302624                       # Number of bytes of host memory used (Byte)
simInsts                                     32705805                       # Number of instructions simulated (Count)
simOps                                       32869951                       # Number of ops (including micro ops) simulated (Count)
hostInstRate                                   356595                       # Simulator instruction rate (inst/s) ((Count/Second))
hostOpRate                                     358385                       # Simulator op (including micro ops) rate (op/s) ((Count/Second))
system.clk_domain.clock                           541                       # Clock period in ticks (Tick)
system.clk_domain.voltage_domain.voltage            1                       # Voltage in Volts (Volt)
system.cpu.numCycles                         47150483                       # Number of cpu cycles simulated (Cycle)
system.cpu.cpi                               1.441655                       # CPI: cycles per instruction (core level) ((Cycle/Count))
system.cpu.ipc                               0.693647                       # IPC: instructions per cycle (core level) ((Count/Cycle))
system.cpu.numWorkItemsStarted                      0                       # Number of work items this cpu started (Count)
system.cpu.numWorkItemsCompleted                    0                       # Number of work items this cpu completed (Count)
system.cpu.branchPred.lookups_0::NoBranch           86      0.00%      0.00% # Number of BP lookups (Count)
system.cpu.branchPred.lookups_0::Return        269665      6.44%      6.45% # Number of BP lookups (Count)
system.cpu.branchPred.lookups_0::CallDirect       227574      5.44%     11.89% # Number of BP lookups (Count)
system.cpu.branchPred.lookups_0::CallIndirect        47890      1.14%     13.03% # Number of BP lookups (Count)
system.cpu.branchPred.lookups_0::DirectCond      2235251     53.42%     66.45% # Number of BP lookups (Count)
system.cpu.branchPred.lookups_0::DirectUncond       632599     15.12%     81.57% # Number of BP lookups (Count)
system.cpu.branchPred.lookups_0::IndirectCond            0      0.00%     81.57% # Number of BP lookups (Count)
system.cpu.branchPred.lookups_0::IndirectUncond       771201     18.43%    100.00% # Number of BP lookups (Count)
system.cpu.branchPred.lookups_0::total        4184266                       # Number of BP lookups (Count)
system.cpu.branchPred.squashes_0::NoBranch           19      0.06%      0.06% # Number of branches that got squashed (completely removed) as an earlier branch was mispredicted. (Count)
system.cpu.branchPred.squashes_0::Return         1462      4.86%      4.92% # Number of branches that got squashed (completely removed) as an earlier branch was mispredicted. (Count)
system.cpu.branchPred.squashes_0::CallDirect         4480     14.88%     19.80% # Number of branches that got squashed (completely removed) as an earlier branch was mispredicted. (Count)
system.cpu.branchPred.squashes_0::CallIndirect         2838      9.43%     29.23% # Number of branches that got squashed (completely removed) as an earlier branch was mispredicted. (Count)
system.cpu.branchPred.squashes_0::DirectCond        16375     54.40%     83.63% # Number of branches that got squashed (completely removed) as an earlier branch was mispredicted. (Count)
system.cpu.branchPred.squashes_0::DirectUncond         4273     14.19%     97.82% # Number of branches that got squashed (completely removed) as an earlier branch was mispredicted. (Count)
system.cpu.branchPred.squashes_0::IndirectCond            0      0.00%     97.82% # Number of branches that got squashed (completely removed) as an earlier branch was mispredicted. (Count)
system.cpu.branchPred.squashes_0::IndirectUncond          656      2.18%    100.00% # Number of branches that got squashed (completely removed) as an earlier branch was mispredicted. (Count)
system.cpu.branchPred.squashes_0::total         30103                       # Number of branches that got squashed (completely removed) as an earlier branch was mispredicted. (Count)
system.cpu.branchPred.corrected_0::NoBranch           66      0.51%      0.51% # Number of branches that got corrected but not yet commited. Branches get corrected by decode or after execute. Also a branch misprediction can be detected out-of-order. Therefore, a corrected branch might not end up beeing committed in case an even earlier branch was mispredicted (Count)
system.cpu.branchPred.corrected_0::Return          233      1.81%      2.33% # Number of branches that got corrected but not yet commited. Branches get corrected by decode or after execute. Also a branch misprediction can be detected out-of-order. Therefore, a corrected branch might not end up beeing committed in case an even earlier branch was mispredicted (Count)
system.cpu.branchPred.corrected_0::CallDirect         1179      9.17%     11.50% # Number of branches that got corrected but not yet commited. Branches get corrected by decode or after execute. Also a branch misprediction can be detected out-of-order. Therefore, a corrected branch might not end up beeing committed in case an even earlier branch was mispredicted (Count)
system.cpu.branchPred.corrected_0::CallIndirect          186      1.45%     12.95% # Number of branches that got corrected but not yet commited. Branches get corrected by decode or after execute. Also a branch misprediction can be detected out-of-order. Therefore, a corrected branch might not end up beeing committed in case an even earlier branch was mispredicted (Count)
system.cpu.branchPred.corrected_0::DirectCond        10480     81.54%     94.49% # Number of branches that got corrected but not yet commited. Branches get corrected by decode or after execute. Also a branch misprediction can be detected out-of-order. Therefore, a corrected branch might not end up beeing committed in case an even earlier branch was mispredicted (Count)
system.cpu.branchPred.corrected_0::DirectUncond          543      4.23%     98.72% # Number of branches that got corrected but not yet commited. Branches get corrected by decode or after execute. Also a branch misprediction can be detected out-of-order. Therefore, a corrected branch might not end up beeing committed in case an even earlier branch was mispredicted (Count)
system.cpu.branchPred.corrected_0::IndirectCond            0      0.00%     98.72% # Number of branches that got corrected but not yet commited. Branches get corrected by decode or after execute. Also a branch misprediction can be detected out-of-order. Therefore, a corrected branch might not end up beeing committed in case an even earlier branch was mispredicted (Count)
system.cpu.branchPred.corrected_0::IndirectUncond          165      1.28%    100.00% # Number of branches that got corrected but not yet commited. Branches get corrected by decode or after execute. Also a branch misprediction can be detected out-of-order. Therefore, a corrected branch might not end up beeing committed in case an even earlier branch was mispredicted (Count)
system.cpu.branchPred.corrected_0::total        12852                       # Number of branches that got corrected but not yet commited. Branches get corrected by decode or after execute. Also a branch misprediction can be detected out-of-order. Therefore, a corrected branch might not end up beeing committed in case an even earlier branch was mispredicted (Count)
system.cpu.branchPred.earlyResteers_0::NoBranch            0                       # Number of branches that got redirected after decode. (Count)
system.cpu.branchPred.earlyResteers_0::Return            0                       # Number of branches that got redirected after decode. (Count)
system.cpu.branchPred.earlyResteers_0::CallDirect            0                       # Number of branches that got redirected after decode. (Count)
system.cpu.branchPred.earlyResteers_0::CallIndirect            0                       # Number of branches that got redirected after decode. (Count)
system.cpu.branchPred.earlyResteers_0::DirectCond            0                       # Number of branches that got redirected after decode. (Count)
system.cpu.branchPred.earlyResteers_0::DirectUncond            0                       # Number of branches that got redirected after decode. (Count)
system.cpu.branchPred.earlyResteers_0::IndirectCond            0                       # Number of branches that got redirected after decode. (Count)
system.cpu.branchPred.earlyResteers_0::IndirectUncond            0                       # Number of branches that got redirected after decode. (Count)
system.cpu.branchPred.earlyResteers_0::total            0                       # Number of branches that got redirected after decode. (Count)
system.cpu.branchPred.committed_0::NoBranch           66      0.00%      0.00% # Number of branches finally committed  (Count)
system.cpu.branchPred.committed_0::Return       268203      6.46%      6.46% # Number of branches finally committed  (Count)
system.cpu.branchPred.committed_0::CallDirect       223094      5.37%     11.83% # Number of branches finally committed  (Count)
system.cpu.branchPred.committed_0::CallIndirect        45052      1.08%     12.91% # Number of branches finally committed  (Count)
system.cpu.branchPred.committed_0::DirectCond      2218875     53.41%     66.33% # Number of branches finally committed  (Count)
system.cpu.branchPred.committed_0::DirectUncond       628326     15.13%     81.45% # Number of branches finally committed  (Count)
system.cpu.branchPred.committed_0::IndirectCond            0      0.00%     81.45% # Number of branches finally committed  (Count)
system.cpu.branchPred.committed_0::IndirectUncond       770545     18.55%    100.00% # Number of branches finally committed  (Count)
system.cpu.branchPred.committed_0::total      4154161                       # Number of branches finally committed  (Count)
system.cpu.branchPred.mispredicted_0::NoBranch           66      0.51%      0.51% # Number of committed branches that were mispredicted. (Count)
system.cpu.branchPred.mispredicted_0::Return          233      1.81%      2.33% # Number of committed branches that were mispredicted. (Count)
system.cpu.branchPred.mispredicted_0::CallDirect         1179      9.17%     11.50% # Number of committed branches that were mispredicted. (Count)
system.cpu.branchPred.mispredicted_0::CallIndirect          186      1.45%     12.95% # Number of committed branches that were mispredicted. (Count)
system.cpu.branchPred.mispredicted_0::DirectCond        10480     81.54%     94.49% # Number of committed branches that were mispredicted. (Count)
system.cpu.branchPred.mispredicted_0::DirectUncond          543      4.23%     98.72% # Number of committed branches that were mispredicted. (Count)
system.cpu.branchPred.mispredicted_0::IndirectCond            0      0.00%     98.72% # Number of committed branches that were mispredicted. (Count)
system.cpu.branchPred.mispredicted_0::IndirectUncond          165      1.28%    100.00% # Number of committed branches that were mispredicted. (Count)
system.cpu.branchPred.mispredicted_0::total        12852                       # Number of committed branches that were mispredicted. (Count)
system.cpu.branchPred.targetProvider_0::NoTarget      1188161     28.40%     28.40% # The component providing the target for taken branches (Count)
system.cpu.branchPred.targetProvider_0::BTB      1908010     45.60%     74.00% # The component providing the target for taken branches (Count)
system.cpu.branchPred.targetProvider_0::RAS       269661      6.44%     80.44% # The component providing the target for taken branches (Count)
system.cpu.branchPred.targetProvider_0::Indirect       818434     19.56%    100.00% # The component providing the target for taken branches (Count)
system.cpu.branchPred.targetProvider_0::total      4184266                       # The component providing the target for taken branches (Count)
system.cpu.branchPred.targetWrong_0::NoBranch         4716     41.09%     41.09% # Number of branches where the target was incorrect or not available at prediction time. (Count)
system.cpu.branchPred.targetWrong_0::Return         6591     57.42%     98.51% # Number of branches where the target was incorrect or not available at prediction time. (Count)
system.cpu.branchPred.targetWrong_0::CallDirect          150      1.31%     99.82% # Number of branches where the target was incorrect or not available at prediction time. (Count)
system.cpu.branchPred.targetWrong_0::CallIndirect           21      0.18%    100.00% # Number of branches where the target was incorrect or not available at prediction time. (Count)
system.cpu.branchPred.targetWrong_0::DirectCond            0      0.00%    100.00% # Number of branches where the target was incorrect or not available at prediction time. (Count)
system.cpu.branchPred.targetWrong_0::DirectUncond            0      0.00%    100.00% # Number of branches where the target was incorrect or not available at prediction time. (Count)
system.cpu.branchPred.targetWrong_0::IndirectCond            0      0.00%    100.00% # Number of branches where the target was incorrect or not available at prediction time. (Count)
system.cpu.branchPred.targetWrong_0::IndirectUncond            0      0.00%    100.00% # Number of branches where the target was incorrect or not available at prediction time. (Count)
system.cpu.branchPred.targetWrong_0::total        11478                       # Number of branches where the target was incorrect or not available at prediction time. (Count)
system.cpu.branchPred.condPredicted           2235337                       # Number of conditional branches predicted (Count)
system.cpu.branchPred.condPredictedTaken      1052284                       # Number of conditional branches predicted as taken (Count)
system.cpu.branchPred.condIncorrect             12852                       # Number of conditional branches incorrect (Count)
system.cpu.branchPred.predTakenBTBMiss           1157                       # Number of branches predicted taken but missed in BTB (Count)
system.cpu.branchPred.NotTakenMispredicted         6450                       # Number branches predicted 'not taken' but turned out to be taken (Count)
system.cpu.branchPred.TakenMispredicted          6402                       # Number branches predicted taken but are actually not taken (Count)
system.cpu.branchPred.BTBLookups              4184266                       # Number of BTB lookups (Count)
system.cpu.branchPred.BTBUpdates                 5800                       # Number of BTB updates (Count)
system.cpu.branchPred.BTBHits                 2448785                       # Number of BTB hits (Count)
system.cpu.branchPred.BTBHitRatio            0.585236                       # BTB Hit Ratio (Ratio)
system.cpu.branchPred.BTBMispredicted            1657                       # Number BTB mispredictions. No target found or target wrong (Count)
system.cpu.branchPred.indirectLookups          819091                       # Number of indirect predictor lookups. (Count)
system.cpu.branchPred.indirectHits             818434                       # Number of indirect target hits. (Count)
system.cpu.branchPred.indirectMisses              657                       # Number of indirect misses. (Count)
system.cpu.branchPred.indirectMispredicted            0                       # Number of mispredicted indirect branches. (Count)
system.cpu.branchPred.btb.lookups::NoBranch           86      0.00%      0.00% # Number of BTB lookups (Count)
system.cpu.branchPred.btb.lookups::Return       269665      6.44%      6.45% # Number of BTB lookups (Count)
system.cpu.branchPred.btb.lookups::CallDirect       227574      5.44%     11.89% # Number of BTB lookups (Count)
system.cpu.branchPred.btb.lookups::CallIndirect        47890      1.14%     13.03% # Number of BTB lookups (Count)
system.cpu.branchPred.btb.lookups::DirectCond      2235251     53.42%     66.45% # Number of BTB lookups (Count)
system.cpu.branchPred.btb.lookups::DirectUncond       632599     15.12%     81.57% # Number of BTB lookups (Count)
system.cpu.branchPred.btb.lookups::IndirectCond            0      0.00%     81.57% # Number of BTB lookups (Count)
system.cpu.branchPred.btb.lookups::IndirectUncond       771201     18.43%    100.00% # Number of BTB lookups (Count)
system.cpu.branchPred.btb.lookups::total      4184266                       # Number of BTB lookups (Count)
system.cpu.branchPred.btb.misses::NoBranch           86      0.00%      0.00% # Number of BTB misses (Count)
system.cpu.branchPred.btb.misses::Return       266698     15.37%     15.37% # Number of BTB misses (Count)
system.cpu.branchPred.btb.misses::CallDirect         1692      0.10%     15.47% # Number of BTB misses (Count)
system.cpu.branchPred.btb.misses::CallIndirect         4346      0.25%     15.72% # Number of BTB misses (Count)
system.cpu.branchPred.btb.misses::DirectCond       690539     39.79%     55.51% # Number of BTB misses (Count)
system.cpu.branchPred.btb.misses::DirectUncond          919      0.05%     55.56% # Number of BTB misses (Count)
system.cpu.branchPred.btb.misses::IndirectCond            0      0.00%     55.56% # Number of BTB misses (Count)
system.cpu.branchPred.btb.misses::IndirectUncond       771201     44.44%    100.00% # Number of BTB misses (Count)
system.cpu.branchPred.btb.misses::total       1735481                       # Number of BTB misses (Count)
system.cpu.branchPred.btb.updates::NoBranch            0      0.00%      0.00% # Number of BTB updates (Count)
system.cpu.branchPred.btb.updates::Return            0      0.00%      0.00% # Number of BTB updates (Count)
system.cpu.branchPred.btb.updates::CallDirect         1179     20.33%     20.33% # Number of BTB updates (Count)
system.cpu.branchPred.btb.updates::CallIndirect            0      0.00%     20.33% # Number of BTB updates (Count)
system.cpu.branchPred.btb.updates::DirectCond         4078     70.31%     90.64% # Number of BTB updates (Count)
system.cpu.branchPred.btb.updates::DirectUncond          543      9.36%    100.00% # Number of BTB updates (Count)
system.cpu.branchPred.btb.updates::IndirectCond            0      0.00%    100.00% # Number of BTB updates (Count)
system.cpu.branchPred.btb.updates::IndirectUncond            0      0.00%    100.00% # Number of BTB updates (Count)
system.cpu.branchPred.btb.updates::total         5800                       # Number of BTB updates (Count)
system.cpu.branchPred.btb.mispredict::NoBranch            0      0.00%      0.00% # Number of BTB mispredictions. No target found or target wrong. (Count)
system.cpu.branchPred.btb.mispredict::Return            0      0.00%      0.00% # Number of BTB mispredictions. No target found or target wrong. (Count)
system.cpu.branchPred.btb.mispredict::CallDirect         1179     20.33%     20.33% # Number of BTB mispredictions. No target found or target wrong. (Count)
system.cpu.branchPred.btb.mispredict::CallIndirect            0      0.00%     20.33% # Number of BTB mispredictions. No target found or target wrong. (Count)
system.cpu.branchPred.btb.mispredict::DirectCond         4078     70.31%     90.64% # Number of BTB mispredictions. No target found or target wrong. (Count)
system.cpu.branchPred.btb.mispredict::DirectUncond          543      9.36%    100.00% # Number of BTB mispredictions. No target found or target wrong. (Count)
system.cpu.branchPred.btb.mispredict::IndirectCond            0      0.00%    100.00% # Number of BTB mispredictions. No target found or target wrong. (Count)
system.cpu.branchPred.btb.mispredict::IndirectUncond            0      0.00%    100.00% # Number of BTB mispredictions. No target found or target wrong. (Count)
system.cpu.branchPred.btb.mispredict::total         5800                       # Number of BTB mispredictions. No target found or target wrong. (Count)
system.cpu.branchPred.btb.power_state.pwrStateResidencyTicks::UNDEFINED  25508411303                       # Cumulative time (in ticks) in various power states (Tick)
system.cpu.branchPred.indirectBranchPred.lookups       819091                       # Number of lookups (Count)
system.cpu.branchPred.indirectBranchPred.hits       818434                       # Number of hits of a tag (Count)
system.cpu.branchPred.indirectBranchPred.misses          657                       # Number of misses (Count)
system.cpu.branchPred.indirectBranchPred.targetRecords          351                       # Number of targets that where recorded/installed in the cache (Count)
system.cpu.branchPred.indirectBranchPred.indirectRecords       819442                       # Number of indirect branches/calls recorded in the indirect hist (Count)
system.cpu.branchPred.indirectBranchPred.speculativeOverflows            4                       # Number of times more than the allowed capacity for speculative branches/calls where in flight and destroy the path history (Count)
system.cpu.branchPred.ras.pushes               276926                       # Number of times a PC was pushed onto the RAS (Count)
system.cpu.branchPred.ras.pops                 276983                       # Number of times a PC was poped from the RAS (Count)
system.cpu.branchPred.ras.squashes               8780                       # Number of times the stack operation was squashed due to wrong speculation. (Count)
system.cpu.branchPred.ras.used                 268203                       # Number of times the RAS is the provider (Count)
system.cpu.branchPred.ras.correct              267970                       # Number of times the RAS is the provider and the prediction is correct (Count)
system.cpu.branchPred.ras.incorrect               233                       # Number of times the RAS is the provider and the prediction is wrong (Count)
system.cpu.commitStats0.numInsts             32705805                       # Number of instructions committed (thread level) (Count)
system.cpu.commitStats0.numOps               32869951                       # Number of ops (including micro ops) committed (thread level) (Count)
system.cpu.commitStats0.numInstsNotNOP              0                       # Number of instructions committed excluding NOPs or prefetches (Count)
system.cpu.commitStats0.numOpsNotNOP                0                       # Number of Ops (including micro ops) Simulated (Count)
system.cpu.commitStats0.cpi                  1.441655                       # CPI: cycles per instruction (thread level) ((Cycle/Count))
system.cpu.commitStats0.ipc                  0.693647                       # IPC: instructions per cycle (thread level) ((Count/Cycle))
system.cpu.commitStats0.numMemRefs                  0                       # Number of memory references committed (Count)
system.cpu.commitStats0.numFpInsts                  0                       # Number of float instructions (Count)
system.cpu.commitStats0.numIntInsts                 0                       # Number of integer instructions (Count)
system.cpu.commitStats0.numLoadInsts                0                       # Number of load instructions (Count)
system.cpu.commitStats0.numStoreInsts               0                       # Number of store instructions (Count)
system.cpu.commitStats0.numVecInsts                 0                       # Number of vector instructions (Count)
system.cpu.commitStats0.committedInstType::No_OpClass          818      0.00%      0.00% # Class of committed instruction. (Count)
system.cpu.commitStats0.committedInstType::IntAlu     16388318     49.86%     49.86% # Class of committed instruction. (Count)
system.cpu.commitStats0.committedInstType::IntMult        28041      0.09%     49.95% # Class of committed instruction. (Count)
system.cpu.commitStats0.committedInstType::IntDiv        27879      0.08%     50.03% # Class of committed instruction. (Count)
system.cpu.commitStats0.committedInstType::FloatAdd      1304774      3.97%     54.00% # Class of committed instruction. (Count)
system.cpu.commitStats0.committedInstType::FloatCmp        75861      0.23%     54.23% # Class of committed instruction. (Count)
system.cpu.commitStats0.committedInstType::FloatCvt      2003539      6.10%     60.33% # Class of committed instruction. (Count)
system.cpu.commitStats0.committedInstType::FloatMult      2156423      6.56%     66.89% # Class of committed instruction. (Count)
system.cpu.commitStats0.committedInstType::FloatMultAcc       516639      1.57%     68.46% # Class of committed instruction. (Count)
system.cpu.commitStats0.committedInstType::FloatDiv       161971      0.49%     68.95% # Class of committed instruction. (Count)
system.cpu.commitStats0.committedInstType::FloatMisc       275654      0.84%     69.79% # Class of committed instruction. (Count)
system.cpu.commitStats0.committedInstType::FloatSqrt            0      0.00%     69.79% # Class of committed instruction. (Count)
system.cpu.commitStats0.committedInstType::SimdAdd            0      0.00%     69.79% # Class of committed instruction. (Count)
system.cpu.commitStats0.committedInstType::SimdAddAcc            0      0.00%     69.79% # Class of committed instruction. (Count)
system.cpu.commitStats0.committedInstType::SimdAlu       327680      1.00%     70.79% # Class of committed instruction. (Count)
system.cpu.commitStats0.committedInstType::SimdCmp            0      0.00%     70.79% # Class of committed instruction. (Count)
system.cpu.commitStats0.committedInstType::SimdCvt            0      0.00%     70.79% # Class of committed instruction. (Count)
system.cpu.commitStats0.committedInstType::SimdMisc       391680      1.19%     71.98% # Class of committed instruction. (Count)
system.cpu.commitStats0.committedInstType::SimdMult       655360      1.99%     73.97% # Class of committed instruction. (Count)
system.cpu.commitStats0.committedInstType::SimdMultAcc            0      0.00%     73.97% # Class of committed instruction. (Count)
system.cpu.commitStats0.committedInstType::SimdMatMultAcc            0      0.00%     73.97% # Class of committed instruction. (Count)
system.cpu.commitStats0.committedInstType::SimdShift       348160      1.06%     75.03% # Class of committed instruction. (Count)
system.cpu.commitStats0.committedInstType::SimdShiftAcc            0      0.00%     75.03% # Class of committed instruction. (Count)
system.cpu.commitStats0.committedInstType::SimdDiv            0      0.00%     75.03% # Class of committed instruction. (Count)
system.cpu.commitStats0.committedInstType::SimdSqrt            0      0.00%     75.03% # Class of committed instruction. (Count)
system.cpu.commitStats0.committedInstType::SimdFloatAdd            0      0.00%     75.03% # Class of committed instruction. (Count)
system.cpu.commitStats0.committedInstType::SimdFloatAlu            0      0.00%     75.03% # Class of committed instruction. (Count)
system.cpu.commitStats0.committedInstType::SimdFloatCmp            0      0.00%     75.03% # Class of committed instruction. (Count)
system.cpu.commitStats0.committedInstType::SimdFloatCvt        81920      0.25%     75.28% # Class of committed instruction. (Count)
system.cpu.commitStats0.committedInstType::SimdFloatDiv            0      0.00%     75.28% # Class of committed instruction. (Count)
system.cpu.commitStats0.committedInstType::SimdFloatMisc            0      0.00%     75.28% # Class of committed instruction. (Count)
system.cpu.commitStats0.committedInstType::SimdFloatMult        40960      0.12%     75.41% # Class of committed instruction. (Count)
system.cpu.commitStats0.committedInstType::SimdFloatMultAcc            0      0.00%     75.41% # Class of committed instruction. (Count)
system.cpu.commitStats0.committedInstType::SimdFloatMatMultAcc            0      0.00%     75.41% # Class of committed instruction. (Count)
system.cpu.commitStats0.committedInstType::SimdFloatSqrt            0      0.00%     75.41% # Class of committed instruction. (Count)
system.cpu.commitStats0.committedInstType::SimdReduceAdd       665600      2.02%     77.43% # Class of committed instruction. (Count)
system.cpu.commitStats0.committedInstType::SimdReduceAlu            0      0.00%     77.43% # Class of committed instruction. (Count)
system.cpu.commitStats0.committedInstType::SimdReduceCmp            0      0.00%     77.43% # Class of committed instruction. (Count)
system.cpu.commitStats0.committedInstType::SimdFloatReduceAdd            0      0.00%     77.43% # Class of committed instruction. (Count)
system.cpu.commitStats0.committedInstType::SimdFloatReduceCmp        40960      0.12%     77.55% # Class of committed instruction. (Count)
system.cpu.commitStats0.committedInstType::SimdAes            0      0.00%     77.55% # Class of committed instruction. (Count)
system.cpu.commitStats0.committedInstType::SimdAesMix            0      0.00%     77.55% # Class of committed instruction. (Count)
system.cpu.commitStats0.committedInstType::SimdSha1Hash            0      0.00%     77.55% # Class of committed instruction. (Count)
system.cpu.commitStats0.committedInstType::SimdSha1Hash2            0      0.00%     77.55% # Class of committed instruction. (Count)
system.cpu.commitStats0.committedInstType::SimdSha256Hash            0      0.00%     77.55% # Class of committed instruction. (Count)
system.cpu.commitStats0.committedInstType::SimdSha256Hash2            0      0.00%     77.55% # Class of committed instruction. (Count)
system.cpu.commitStats0.committedInstType::SimdShaSigma2            0      0.00%     77.55% # Class of committed instruction. (Count)
system.cpu.commitStats0.committedInstType::SimdShaSigma3            0      0.00%     77.55% # Class of committed instruction. (Count)
system.cpu.commitStats0.committedInstType::SimdPredAlu            0      0.00%     77.55% # Class of committed instruction. (Count)
system.cpu.commitStats0.committedInstType::Matrix            0      0.00%     77.55% # Class of committed instruction. (Count)
system.cpu.commitStats0.committedInstType::MatrixMov            0      0.00%     77.55% # Class of committed instruction. (Count)
system.cpu.commitStats0.committedInstType::MatrixOP            0      0.00%     77.55% # Class of committed instruction. (Count)
system.cpu.commitStats0.committedInstType::MemRead      2293807      6.98%     84.53% # Class of committed instruction. (Count)
system.cpu.commitStats0.committedInstType::MemWrite       747760      2.27%     86.81% # Class of committed instruction. (Count)
system.cpu.commitStats0.committedInstType::FloatMemRead      2149859      6.54%     93.35% # Class of committed instruction. (Count)
system.cpu.commitStats0.committedInstType::FloatMemWrite        41008      0.12%     93.47% # Class of committed instruction. (Count)
system.cpu.commitStats0.committedInstType::IprAccess            0      0.00%     93.47% # Class of committed instruction. (Count)
system.cpu.commitStats0.committedInstType::InstPrefetch            0      0.00%     93.47% # Class of committed instruction. (Count)
system.cpu.commitStats0.committedInstType::SimdUnitStrideLoad      1024000      3.12%     96.59% # Class of committed instruction. (Count)
system.cpu.commitStats0.committedInstType::SimdUnitStrideStore        10240      0.03%     96.62% # Class of committed instruction. (Count)
system.cpu.commitStats0.committedInstType::SimdUnitStrideMaskLoad            0      0.00%     96.62% # Class of committed instruction. (Count)
system.cpu.commitStats0.committedInstType::SimdUnitStrideMaskStore            0      0.00%     96.62% # Class of committed instruction. (Count)
system.cpu.commitStats0.committedInstType::SimdStridedLoad            0      0.00%     96.62% # Class of committed instruction. (Count)
system.cpu.commitStats0.committedInstType::SimdStridedStore            0      0.00%     96.62% # Class of committed instruction. (Count)
system.cpu.commitStats0.committedInstType::SimdIndexedLoad            0      0.00%     96.62% # Class of committed instruction. (Count)
system.cpu.commitStats0.committedInstType::SimdIndexedStore            0      0.00%     96.62% # Class of committed instruction. (Count)
system.cpu.commitStats0.committedInstType::SimdWholeRegisterLoad            0      0.00%     96.62% # Class of committed instruction. (Count)
system.cpu.commitStats0.committedInstType::SimdWholeRegisterStore            0      0.00%     96.62% # Class of committed instruction. (Count)
system.cpu.commitStats0.committedInstType::SimdUnitStrideFaultOnlyFirstLoad            0      0.00%     96.62% # Class of committed instruction. (Count)
system.cpu.commitStats0.committedInstType::SimdUnitStrideSegmentedLoad            0      0.00%     96.62% # Class of committed instruction. (Count)
system.cpu.commitStats0.committedInstType::SimdUnitStrideSegmentedStore            0      0.00%     96.62% # Class of committed instruction. (Count)
system.cpu.commitStats0.committedInstType::SimdExt            0      0.00%     96.62% # Class of committed instruction. (Count)
system.cpu.commitStats0.committedInstType::SimdFloatExt            0      0.00%     96.62% # Class of committed instruction. (Count)
system.cpu.commitStats0.committedInstType::SimdConfig      1111040      3.38%    100.00% # Class of committed instruction. (Count)
system.cpu.commitStats0.committedInstType::total     32869951                       # Class of committed instruction. (Count)
system.cpu.dcache.demandHits::cpu.data        6356646                       # number of demand (read+write) hits (Count)
system.cpu.dcache.demandHits::total           6356646                       # number of demand (read+write) hits (Count)
system.cpu.dcache.overallHits::cpu.data       6356646                       # number of overall hits (Count)
system.cpu.dcache.overallHits::total          6356646                       # number of overall hits (Count)
system.cpu.dcache.demandMisses::cpu.data        89945                       # number of demand (read+write) misses (Count)
system.cpu.dcache.demandMisses::total           89945                       # number of demand (read+write) misses (Count)
system.cpu.dcache.overallMisses::cpu.data        89945                       # number of overall misses (Count)
system.cpu.dcache.overallMisses::total          89945                       # number of overall misses (Count)
system.cpu.dcache.demandMissLatency::cpu.data   3583052738                       # number of demand (read+write) miss ticks (Tick)
system.cpu.dcache.demandMissLatency::total   3583052738                       # number of demand (read+write) miss ticks (Tick)
system.cpu.dcache.overallMissLatency::cpu.data   3583052738                       # number of overall miss ticks (Tick)
system.cpu.dcache.overallMissLatency::total   3583052738                       # number of overall miss ticks (Tick)
system.cpu.dcache.demandAccesses::cpu.data      6446591                       # number of demand (read+write) accesses (Count)
system.cpu.dcache.demandAccesses::total       6446591                       # number of demand (read+write) accesses (Count)
system.cpu.dcache.overallAccesses::cpu.data      6446591                       # number of overall (read+write) accesses (Count)
system.cpu.dcache.overallAccesses::total      6446591                       # number of overall (read+write) accesses (Count)
system.cpu.dcache.demandMissRate::cpu.data     0.013952                       # miss rate for demand accesses (Ratio)
system.cpu.dcache.demandMissRate::total      0.013952                       # miss rate for demand accesses (Ratio)
system.cpu.dcache.overallMissRate::cpu.data     0.013952                       # miss rate for overall accesses (Ratio)
system.cpu.dcache.overallMissRate::total     0.013952                       # miss rate for overall accesses (Ratio)
system.cpu.dcache.demandAvgMissLatency::cpu.data 39836.041336                       # average overall miss latency in ticks ((Tick/Count))
system.cpu.dcache.demandAvgMissLatency::total 39836.041336                       # average overall miss latency in ticks ((Tick/Count))
system.cpu.dcache.overallAvgMissLatency::cpu.data 39836.041336                       # average overall miss latency ((Tick/Count))
system.cpu.dcache.overallAvgMissLatency::total 39836.041336                       # average overall miss latency ((Tick/Count))
system.cpu.dcache.blockedCycles::no_mshrs            0                       # number of cycles access was blocked (Cycle)
system.cpu.dcache.blockedCycles::no_targets            0                       # number of cycles access was blocked (Cycle)
system.cpu.dcache.blockedCauses::no_mshrs            0                       # number of times access was blocked (Count)
system.cpu.dcache.blockedCauses::no_targets            0                       # number of times access was blocked (Count)
system.cpu.dcache.avgBlocked::no_mshrs            nan                       # average number of cycles each access was blocked ((Cycle/Count))
system.cpu.dcache.avgBlocked::no_targets          nan                       # average number of cycles each access was blocked ((Cycle/Count))
system.cpu.dcache.writebacks::writebacks        49501                       # number of writebacks (Count)
system.cpu.dcache.writebacks::total             49501                       # number of writebacks (Count)
system.cpu.dcache.demandMshrHits::cpu.data        29553                       # number of demand (read+write) MSHR hits (Count)
system.cpu.dcache.demandMshrHits::total         29553                       # number of demand (read+write) MSHR hits (Count)
system.cpu.dcache.overallMshrHits::cpu.data        29553                       # number of overall MSHR hits (Count)
system.cpu.dcache.overallMshrHits::total        29553                       # number of overall MSHR hits (Count)
system.cpu.dcache.demandMshrMisses::cpu.data        60392                       # number of demand (read+write) MSHR misses (Count)
system.cpu.dcache.demandMshrMisses::total        60392                       # number of demand (read+write) MSHR misses (Count)
system.cpu.dcache.overallMshrMisses::cpu.data        60392                       # number of overall MSHR misses (Count)
system.cpu.dcache.overallMshrMisses::total        60392                       # number of overall MSHR misses (Count)
system.cpu.dcache.demandMshrMissLatency::cpu.data   2623926281                       # number of demand (read+write) MSHR miss ticks (Tick)
system.cpu.dcache.demandMshrMissLatency::total   2623926281                       # number of demand (read+write) MSHR miss ticks (Tick)
system.cpu.dcache.overallMshrMissLatency::cpu.data   2623926281                       # number of overall MSHR miss ticks (Tick)
system.cpu.dcache.overallMshrMissLatency::total   2623926281                       # number of overall MSHR miss ticks (Tick)
system.cpu.dcache.demandMshrMissRate::cpu.data     0.009368                       # mshr miss ratio for demand accesses (Ratio)
system.cpu.dcache.demandMshrMissRate::total     0.009368                       # mshr miss ratio for demand accesses (Ratio)
system.cpu.dcache.overallMshrMissRate::cpu.data     0.009368                       # mshr miss ratio for overall accesses (Ratio)
system.cpu.dcache.overallMshrMissRate::total     0.009368                       # mshr miss ratio for overall accesses (Ratio)
system.cpu.dcache.demandAvgMshrMissLatency::cpu.data 43448.242830                       # average overall mshr miss latency ((Tick/Count))
system.cpu.dcache.demandAvgMshrMissLatency::total 43448.242830                       # average overall mshr miss latency ((Tick/Count))
system.cpu.dcache.overallAvgMshrMissLatency::cpu.data 43448.242830                       # average overall mshr miss latency ((Tick/Count))
system.cpu.dcache.overallAvgMshrMissLatency::total 43448.242830                       # average overall mshr miss latency ((Tick/Count))
system.cpu.dcache.replacements                  59402                       # number of replacements (Count)
system.cpu.dcache.LoadLockedReq.hits::cpu.data           23                       # number of LoadLockedReq hits (Count)
system.cpu.dcache.LoadLockedReq.hits::total           23                       # number of LoadLockedReq hits (Count)
system.cpu.dcache.LoadLockedReq.misses::cpu.data            9                       # number of LoadLockedReq misses (Count)
system.cpu.dcache.LoadLockedReq.misses::total            9                       # number of LoadLockedReq misses (Count)
system.cpu.dcache.LoadLockedReq.missLatency::cpu.data       204498                       # number of LoadLockedReq miss ticks (Tick)
system.cpu.dcache.LoadLockedReq.missLatency::total       204498                       # number of LoadLockedReq miss ticks (Tick)
system.cpu.dcache.LoadLockedReq.accesses::cpu.data           32                       # number of LoadLockedReq accesses(hits+misses) (Count)
system.cpu.dcache.LoadLockedReq.accesses::total           32                       # number of LoadLockedReq accesses(hits+misses) (Count)
system.cpu.dcache.LoadLockedReq.missRate::cpu.data     0.281250                       # miss rate for LoadLockedReq accesses (Ratio)
system.cpu.dcache.LoadLockedReq.missRate::total     0.281250                       # miss rate for LoadLockedReq accesses (Ratio)
system.cpu.dcache.LoadLockedReq.avgMissLatency::cpu.data        22722                       # average LoadLockedReq miss latency ((Tick/Count))
system.cpu.dcache.LoadLockedReq.avgMissLatency::total        22722                       # average LoadLockedReq miss latency ((Tick/Count))
system.cpu.dcache.LoadLockedReq.mshrMisses::cpu.data            9                       # number of LoadLockedReq MSHR misses (Count)
system.cpu.dcache.LoadLockedReq.mshrMisses::total            9                       # number of LoadLockedReq MSHR misses (Count)
system.cpu.dcache.LoadLockedReq.mshrMissLatency::cpu.data       194760                       # number of LoadLockedReq MSHR miss ticks (Tick)
system.cpu.dcache.LoadLockedReq.mshrMissLatency::total       194760                       # number of LoadLockedReq MSHR miss ticks (Tick)
system.cpu.dcache.LoadLockedReq.mshrMissRate::cpu.data     0.281250                       # mshr miss rate for LoadLockedReq accesses (Ratio)
system.cpu.dcache.LoadLockedReq.mshrMissRate::total     0.281250                       # mshr miss rate for LoadLockedReq accesses (Ratio)
system.cpu.dcache.LoadLockedReq.avgMshrMissLatency::cpu.data        21640                       # average LoadLockedReq mshr miss latency ((Tick/Count))
system.cpu.dcache.LoadLockedReq.avgMshrMissLatency::total        21640                       # average LoadLockedReq mshr miss latency ((Tick/Count))
system.cpu.dcache.ReadReq.hits::cpu.data      5588599                       # number of ReadReq hits (Count)
system.cpu.dcache.ReadReq.hits::total         5588599                       # number of ReadReq hits (Count)
system.cpu.dcache.ReadReq.misses::cpu.data        54647                       # number of ReadReq misses (Count)
system.cpu.dcache.ReadReq.misses::total         54647                       # number of ReadReq misses (Count)
system.cpu.dcache.ReadReq.missLatency::cpu.data   1483306226                       # number of ReadReq miss ticks (Tick)
system.cpu.dcache.ReadReq.missLatency::total   1483306226                       # number of ReadReq miss ticks (Tick)
system.cpu.dcache.ReadReq.accesses::cpu.data      5643246                       # number of ReadReq accesses(hits+misses) (Count)
system.cpu.dcache.ReadReq.accesses::total      5643246                       # number of ReadReq accesses(hits+misses) (Count)
system.cpu.dcache.ReadReq.missRate::cpu.data     0.009684                       # miss rate for ReadReq accesses (Ratio)
system.cpu.dcache.ReadReq.missRate::total     0.009684                       # miss rate for ReadReq accesses (Ratio)
system.cpu.dcache.ReadReq.avgMissLatency::cpu.data 27143.415485                       # average ReadReq miss latency ((Tick/Count))
system.cpu.dcache.ReadReq.avgMissLatency::total 27143.415485                       # average ReadReq miss latency ((Tick/Count))
system.cpu.dcache.ReadReq.mshrHits::cpu.data        18501                       # number of ReadReq MSHR hits (Count)
system.cpu.dcache.ReadReq.mshrHits::total        18501                       # number of ReadReq MSHR hits (Count)
system.cpu.dcache.ReadReq.mshrMisses::cpu.data        36146                       # number of ReadReq MSHR misses (Count)
system.cpu.dcache.ReadReq.mshrMisses::total        36146                       # number of ReadReq MSHR misses (Count)
system.cpu.dcache.ReadReq.mshrMissLatency::cpu.data   1134805928                       # number of ReadReq MSHR miss ticks (Tick)
system.cpu.dcache.ReadReq.mshrMissLatency::total   1134805928                       # number of ReadReq MSHR miss ticks (Tick)
system.cpu.dcache.ReadReq.mshrMissRate::cpu.data     0.006405                       # mshr miss rate for ReadReq accesses (Ratio)
system.cpu.dcache.ReadReq.mshrMissRate::total     0.006405                       # mshr miss rate for ReadReq accesses (Ratio)
system.cpu.dcache.ReadReq.avgMshrMissLatency::cpu.data 31395.062469                       # average ReadReq mshr miss latency ((Tick/Count))
system.cpu.dcache.ReadReq.avgMshrMissLatency::total 31395.062469                       # average ReadReq mshr miss latency ((Tick/Count))
system.cpu.dcache.StoreCondReq.hits::cpu.data           32                       # number of StoreCondReq hits (Count)
system.cpu.dcache.StoreCondReq.hits::total           32                       # number of StoreCondReq hits (Count)
system.cpu.dcache.StoreCondReq.accesses::cpu.data           32                       # number of StoreCondReq accesses(hits+misses) (Count)
system.cpu.dcache.StoreCondReq.accesses::total           32                       # number of StoreCondReq accesses(hits+misses) (Count)
system.cpu.dcache.SwapReq.hits::cpu.data         3172                       # number of SwapReq hits (Count)
system.cpu.dcache.SwapReq.hits::total            3172                       # number of SwapReq hits (Count)
system.cpu.dcache.SwapReq.misses::cpu.data           25                       # number of SwapReq misses (Count)
system.cpu.dcache.SwapReq.misses::total            25                       # number of SwapReq misses (Count)
system.cpu.dcache.SwapReq.missLatency::cpu.data       470670                       # number of SwapReq miss ticks (Tick)
system.cpu.dcache.SwapReq.missLatency::total       470670                       # number of SwapReq miss ticks (Tick)
system.cpu.dcache.SwapReq.accesses::cpu.data         3197                       # number of SwapReq accesses(hits+misses) (Count)
system.cpu.dcache.SwapReq.accesses::total         3197                       # number of SwapReq accesses(hits+misses) (Count)
system.cpu.dcache.SwapReq.missRate::cpu.data     0.007820                       # miss rate for SwapReq accesses (Ratio)
system.cpu.dcache.SwapReq.missRate::total     0.007820                       # miss rate for SwapReq accesses (Ratio)
system.cpu.dcache.SwapReq.avgMissLatency::cpu.data 18826.800000                       # average SwapReq miss latency ((Tick/Count))
system.cpu.dcache.SwapReq.avgMissLatency::total 18826.800000                       # average SwapReq miss latency ((Tick/Count))
system.cpu.dcache.SwapReq.mshrMisses::cpu.data           25                       # number of SwapReq MSHR misses (Count)
system.cpu.dcache.SwapReq.mshrMisses::total           25                       # number of SwapReq MSHR misses (Count)
system.cpu.dcache.SwapReq.mshrMissLatency::cpu.data       443620                       # number of SwapReq MSHR miss ticks (Tick)
system.cpu.dcache.SwapReq.mshrMissLatency::total       443620                       # number of SwapReq MSHR miss ticks (Tick)
system.cpu.dcache.SwapReq.mshrMissRate::cpu.data     0.007820                       # mshr miss rate for SwapReq accesses (Ratio)
system.cpu.dcache.SwapReq.mshrMissRate::total     0.007820                       # mshr miss rate for SwapReq accesses (Ratio)
system.cpu.dcache.SwapReq.avgMshrMissLatency::cpu.data 17744.800000                       # average SwapReq mshr miss latency ((Tick/Count))
system.cpu.dcache.SwapReq.avgMshrMissLatency::total 17744.800000                       # average SwapReq mshr miss latency ((Tick/Count))
system.cpu.dcache.WriteReq.hits::cpu.data       768047                       # number of WriteReq hits (Count)
system.cpu.dcache.WriteReq.hits::total         768047                       # number of WriteReq hits (Count)
system.cpu.dcache.WriteReq.misses::cpu.data        35298                       # number of WriteReq misses (Count)
system.cpu.dcache.WriteReq.misses::total        35298                       # number of WriteReq misses (Count)
system.cpu.dcache.WriteReq.missLatency::cpu.data   2099746512                       # number of WriteReq miss ticks (Tick)
system.cpu.dcache.WriteReq.missLatency::total   2099746512                       # number of WriteReq miss ticks (Tick)
system.cpu.dcache.WriteReq.accesses::cpu.data       803345                       # number of WriteReq accesses(hits+misses) (Count)
system.cpu.dcache.WriteReq.accesses::total       803345                       # number of WriteReq accesses(hits+misses) (Count)
system.cpu.dcache.WriteReq.missRate::cpu.data     0.043939                       # miss rate for WriteReq accesses (Ratio)
system.cpu.dcache.WriteReq.missRate::total     0.043939                       # miss rate for WriteReq accesses (Ratio)
system.cpu.dcache.WriteReq.avgMissLatency::cpu.data 59486.274350                       # average WriteReq miss latency ((Tick/Count))
system.cpu.dcache.WriteReq.avgMissLatency::total 59486.274350                       # average WriteReq miss latency ((Tick/Count))
system.cpu.dcache.WriteReq.mshrHits::cpu.data        11052                       # number of WriteReq MSHR hits (Count)
system.cpu.dcache.WriteReq.mshrHits::total        11052                       # number of WriteReq MSHR hits (Count)
system.cpu.dcache.WriteReq.mshrMisses::cpu.data        24246                       # number of WriteReq MSHR misses (Count)
system.cpu.dcache.WriteReq.mshrMisses::total        24246                       # number of WriteReq MSHR misses (Count)
system.cpu.dcache.WriteReq.mshrMissLatency::cpu.data   1489120353                       # number of WriteReq MSHR miss ticks (Tick)
system.cpu.dcache.WriteReq.mshrMissLatency::total   1489120353                       # number of WriteReq MSHR miss ticks (Tick)
system.cpu.dcache.WriteReq.mshrMissRate::cpu.data     0.030181                       # mshr miss rate for WriteReq accesses (Ratio)
system.cpu.dcache.WriteReq.mshrMissRate::total     0.030181                       # mshr miss rate for WriteReq accesses (Ratio)
system.cpu.dcache.WriteReq.avgMshrMissLatency::cpu.data 61417.155531                       # average WriteReq mshr miss latency ((Tick/Count))
system.cpu.dcache.WriteReq.avgMshrMissLatency::total 61417.155531                       # average WriteReq mshr miss latency ((Tick/Count))
system.cpu.dcache.power_state.pwrStateResidencyTicks::UNDEFINED  25508411303                       # Cumulative time (in ticks) in various power states (Tick)
system.cpu.dcache.tags.tagsInUse          1018.961638                       # Average ticks per tags in use ((Tick/Count))
system.cpu.dcache.tags.totalRefs              6420299                       # Total number of references to valid blocks. (Count)
system.cpu.dcache.tags.sampledRefs              60426                       # Sample count of references to valid blocks. (Count)
system.cpu.dcache.tags.avgRefs             106.250604                       # Average number of references to valid blocks. ((Count/Count))
system.cpu.dcache.tags.warmupTick              192596                       # The tick when the warmup percentage was hit. (Tick)
system.cpu.dcache.tags.occupancies::cpu.data  1018.961638                       # Average occupied blocks per tick, per requestor ((Count/Tick))
system.cpu.dcache.tags.avgOccs::cpu.data     0.995080                       # Average percentage of cache occupancy ((Ratio/Tick))
system.cpu.dcache.tags.avgOccs::total        0.995080                       # Average percentage of cache occupancy ((Ratio/Tick))
system.cpu.dcache.tags.occupanciesTaskId::1024         1024                       # Occupied blocks per task id (Count)
system.cpu.dcache.tags.ageTaskId_1024::0           56                       # Occupied blocks per task id, per block age (Count)
system.cpu.dcache.tags.ageTaskId_1024::1          503                       # Occupied blocks per task id, per block age (Count)
system.cpu.dcache.tags.ageTaskId_1024::2          465                       # Occupied blocks per task id, per block age (Count)
system.cpu.dcache.tags.ratioOccsTaskId::1024            1                       # Ratio of occupied blocks and all blocks, per task id (Ratio)
system.cpu.dcache.tags.tagAccesses           12960130                       # Number of tag accesses (Count)
system.cpu.dcache.tags.dataAccesses          12960130                       # Number of data accesses (Count)
system.cpu.dcache.tags.power_state.pwrStateResidencyTicks::UNDEFINED  25508411303                       # Cumulative time (in ticks) in various power states (Tick)
system.cpu.executeStats0.numInsts                   0                       # Number of executed instructions (Count)
system.cpu.executeStats0.numNop                     0                       # Number of nop insts executed (Count)
system.cpu.executeStats0.numBranches                0                       # Number of branches executed (Count)
system.cpu.executeStats0.numLoadInsts               0                       # Number of load instructions executed (Count)
system.cpu.executeStats0.numStoreInsts              0                       # Number of stores executed (Count)
system.cpu.executeStats0.instRate                   0                       # Inst execution rate ((Count/Cycle))
system.cpu.executeStats0.numFpRegWrites             0                       # Number of times the floating registers were written (Count)
system.cpu.executeStats0.numMemRefs                 0                       # Number of memory refs (Count)
system.cpu.executeStats0.numVecAluAccesses            0                       # Number of vector alu accesses (Count)
system.cpu.executeStats0.numDiscardedOps        34376                       # Number of ops (including micro ops) which were discarded before commit (Count)
system.cpu.fetch2.intInstructions            16339806                       # Number of integer instructions successfully decoded (Count)
system.cpu.fetch2.fpInstructions              6503806                       # Number of floating point instructions successfully decoded (Count)
system.cpu.fetch2.vecInstructions             3533077                       # Number of SIMD instructions successfully decoded (Count)
system.cpu.fetch2.loadInstructions            5458741                       # Number of memory load instructions successfully decoded (Count)
system.cpu.fetch2.storeInstructions            814265                       # Number of memory store instructions successfully decoded (Count)
system.cpu.fetch2.amoInstructions                   0                       # Number of memory atomic instructions successfully decoded (Count)
system.cpu.fetchStats0.numInsts                     0                       # Number of instructions fetched (thread level) (Count)
system.cpu.fetchStats0.numOps                       0                       # Number of ops (including micro ops) fetched (thread level) (Count)
system.cpu.fetchStats0.fetchRate                    0                       # Number of inst fetches per cycle ((Count/Cycle))
system.cpu.fetchStats0.branchRate                   0                       # Number of branch fetches per cycle (Ratio)
system.cpu.fetchStats0.numFetchSuspends             0                       # Number of times Execute suspended instruction fetching (Count)
system.cpu.icache.demandHits::cpu.inst        9620597                       # number of demand (read+write) hits (Count)
system.cpu.icache.demandHits::total           9620597                       # number of demand (read+write) hits (Count)
system.cpu.icache.overallHits::cpu.inst       9620597                       # number of overall hits (Count)
system.cpu.icache.overallHits::total          9620597                       # number of overall hits (Count)
system.cpu.icache.demandMisses::cpu.inst         2293                       # number of demand (read+write) misses (Count)
system.cpu.icache.demandMisses::total            2293                       # number of demand (read+write) misses (Count)
system.cpu.icache.overallMisses::cpu.inst         2293                       # number of overall misses (Count)
system.cpu.icache.overallMisses::total           2293                       # number of overall misses (Count)
system.cpu.icache.demandMissLatency::cpu.inst    155208031                       # number of demand (read+write) miss ticks (Tick)
system.cpu.icache.demandMissLatency::total    155208031                       # number of demand (read+write) miss ticks (Tick)
system.cpu.icache.overallMissLatency::cpu.inst    155208031                       # number of overall miss ticks (Tick)
system.cpu.icache.overallMissLatency::total    155208031                       # number of overall miss ticks (Tick)
system.cpu.icache.demandAccesses::cpu.inst      9622890                       # number of demand (read+write) accesses (Count)
system.cpu.icache.demandAccesses::total       9622890                       # number of demand (read+write) accesses (Count)
system.cpu.icache.overallAccesses::cpu.inst      9622890                       # number of overall (read+write) accesses (Count)
system.cpu.icache.overallAccesses::total      9622890                       # number of overall (read+write) accesses (Count)
system.cpu.icache.demandMissRate::cpu.inst     0.000238                       # miss rate for demand accesses (Ratio)
system.cpu.icache.demandMissRate::total      0.000238                       # miss rate for demand accesses (Ratio)
system.cpu.icache.overallMissRate::cpu.inst     0.000238                       # miss rate for overall accesses (Ratio)
system.cpu.icache.overallMissRate::total     0.000238                       # miss rate for overall accesses (Ratio)
system.cpu.icache.demandAvgMissLatency::cpu.inst 67687.758831                       # average overall miss latency in ticks ((Tick/Count))
system.cpu.icache.demandAvgMissLatency::total 67687.758831                       # average overall miss latency in ticks ((Tick/Count))
system.cpu.icache.overallAvgMissLatency::cpu.inst 67687.758831                       # average overall miss latency ((Tick/Count))
system.cpu.icache.overallAvgMissLatency::total 67687.758831                       # average overall miss latency ((Tick/Count))
system.cpu.icache.blockedCycles::no_mshrs            0                       # number of cycles access was blocked (Cycle)
system.cpu.icache.blockedCycles::no_targets            0                       # number of cycles access was blocked (Cycle)
system.cpu.icache.blockedCauses::no_mshrs            0                       # number of times access was blocked (Count)
system.cpu.icache.blockedCauses::no_targets            0                       # number of times access was blocked (Count)
system.cpu.icache.avgBlocked::no_mshrs            nan                       # average number of cycles each access was blocked ((Cycle/Count))
system.cpu.icache.avgBlocked::no_targets          nan                       # average number of cycles each access was blocked ((Cycle/Count))
system.cpu.icache.demandMshrMisses::cpu.inst         2293                       # number of demand (read+write) MSHR misses (Count)
system.cpu.icache.demandMshrMisses::total         2293                       # number of demand (read+write) MSHR misses (Count)
system.cpu.icache.overallMshrMisses::cpu.inst         2293                       # number of overall MSHR misses (Count)
system.cpu.icache.overallMshrMisses::total         2293                       # number of overall MSHR misses (Count)
system.cpu.icache.demandMshrMissLatency::cpu.inst    152728087                       # number of demand (read+write) MSHR miss ticks (Tick)
system.cpu.icache.demandMshrMissLatency::total    152728087                       # number of demand (read+write) MSHR miss ticks (Tick)
system.cpu.icache.overallMshrMissLatency::cpu.inst    152728087                       # number of overall MSHR miss ticks (Tick)
system.cpu.icache.overallMshrMissLatency::total    152728087                       # number of overall MSHR miss ticks (Tick)
system.cpu.icache.demandMshrMissRate::cpu.inst     0.000238                       # mshr miss ratio for demand accesses (Ratio)
system.cpu.icache.demandMshrMissRate::total     0.000238                       # mshr miss ratio for demand accesses (Ratio)
system.cpu.icache.overallMshrMissRate::cpu.inst     0.000238                       # mshr miss ratio for overall accesses (Ratio)
system.cpu.icache.overallMshrMissRate::total     0.000238                       # mshr miss ratio for overall accesses (Ratio)
system.cpu.icache.demandAvgMshrMissLatency::cpu.inst 66606.230702                       # average overall mshr miss latency ((Tick/Count))
system.cpu.icache.demandAvgMshrMissLatency::total 66606.230702                       # average overall mshr miss latency ((Tick/Count))
system.cpu.icache.overallAvgMshrMissLatency::cpu.inst 66606.230702                       # average overall mshr miss latency ((Tick/Count))
system.cpu.icache.overallAvgMshrMissLatency::total 66606.230702                       # average overall mshr miss latency ((Tick/Count))
system.cpu.icache.replacements                   1412                       # number of replacements (Count)
system.cpu.icache.ReadReq.hits::cpu.inst      9620597                       # number of ReadReq hits (Count)
system.cpu.icache.ReadReq.hits::total         9620597                       # number of ReadReq hits (Count)
system.cpu.icache.ReadReq.misses::cpu.inst         2293                       # number of ReadReq misses (Count)
system.cpu.icache.ReadReq.misses::total          2293                       # number of ReadReq misses (Count)
system.cpu.icache.ReadReq.missLatency::cpu.inst    155208031                       # number of ReadReq miss ticks (Tick)
system.cpu.icache.ReadReq.missLatency::total    155208031                       # number of ReadReq miss ticks (Tick)
system.cpu.icache.ReadReq.accesses::cpu.inst      9622890                       # number of ReadReq accesses(hits+misses) (Count)
system.cpu.icache.ReadReq.accesses::total      9622890                       # number of ReadReq accesses(hits+misses) (Count)
system.cpu.icache.ReadReq.missRate::cpu.inst     0.000238                       # miss rate for ReadReq accesses (Ratio)
system.cpu.icache.ReadReq.missRate::total     0.000238                       # miss rate for ReadReq accesses (Ratio)
system.cpu.icache.ReadReq.avgMissLatency::cpu.inst 67687.758831                       # average ReadReq miss latency ((Tick/Count))
system.cpu.icache.ReadReq.avgMissLatency::total 67687.758831                       # average ReadReq miss latency ((Tick/Count))
system.cpu.icache.ReadReq.mshrMisses::cpu.inst         2293                       # number of ReadReq MSHR misses (Count)
system.cpu.icache.ReadReq.mshrMisses::total         2293                       # number of ReadReq MSHR misses (Count)
system.cpu.icache.ReadReq.mshrMissLatency::cpu.inst    152728087                       # number of ReadReq MSHR miss ticks (Tick)
system.cpu.icache.ReadReq.mshrMissLatency::total    152728087                       # number of ReadReq MSHR miss ticks (Tick)
system.cpu.icache.ReadReq.mshrMissRate::cpu.inst     0.000238                       # mshr miss rate for ReadReq accesses (Ratio)
system.cpu.icache.ReadReq.mshrMissRate::total     0.000238                       # mshr miss rate for ReadReq accesses (Ratio)
system.cpu.icache.ReadReq.avgMshrMissLatency::cpu.inst 66606.230702                       # average ReadReq mshr miss latency ((Tick/Count))
system.cpu.icache.ReadReq.avgMshrMissLatency::total 66606.230702                       # average ReadReq mshr miss latency ((Tick/Count))
system.cpu.icache.power_state.pwrStateResidencyTicks::UNDEFINED  25508411303                       # Cumulative time (in ticks) in various power states (Tick)
system.cpu.icache.tags.tagsInUse           801.619705                       # Average ticks per tags in use ((Tick/Count))
system.cpu.icache.tags.totalRefs              9622889                       # Total number of references to valid blocks. (Count)
system.cpu.icache.tags.sampledRefs               2292                       # Sample count of references to valid blocks. (Count)
system.cpu.icache.tags.avgRefs            4198.468150                       # Average number of references to valid blocks. ((Count/Count))
system.cpu.icache.tags.warmupTick               96839                       # The tick when the warmup percentage was hit. (Tick)
system.cpu.icache.tags.occupancies::cpu.inst   801.619705                       # Average occupied blocks per tick, per requestor ((Count/Tick))
system.cpu.icache.tags.avgOccs::cpu.inst     0.782832                       # Average percentage of cache occupancy ((Ratio/Tick))
system.cpu.icache.tags.avgOccs::total        0.782832                       # Average percentage of cache occupancy ((Ratio/Tick))
system.cpu.icache.tags.occupanciesTaskId::1024          880                       # Occupied blocks per task id (Count)
system.cpu.icache.tags.ageTaskId_1024::0           42                       # Occupied blocks per task id, per block age (Count)
system.cpu.icache.tags.ageTaskId_1024::2           90                       # Occupied blocks per task id, per block age (Count)
system.cpu.icache.tags.ageTaskId_1024::3           61                       # Occupied blocks per task id, per block age (Count)
system.cpu.icache.tags.ageTaskId_1024::4          687                       # Occupied blocks per task id, per block age (Count)
system.cpu.icache.tags.ratioOccsTaskId::1024     0.859375                       # Ratio of occupied blocks and all blocks, per task id (Ratio)
system.cpu.icache.tags.tagAccesses           19248072                       # Number of tag accesses (Count)
system.cpu.icache.tags.dataAccesses          19248072                       # Number of data accesses (Count)
system.cpu.icache.tags.power_state.pwrStateResidencyTicks::UNDEFINED  25508411303                       # Cumulative time (in ticks) in various power states (Tick)
system.cpu.mmu.dtb.readHits                         0                       # read hits (Count)
system.cpu.mmu.dtb.readMisses                       0                       # read misses (Count)
system.cpu.mmu.dtb.readAccesses                     0                       # read accesses (Count)
system.cpu.mmu.dtb.writeHits                        0                       # write hits (Count)
system.cpu.mmu.dtb.writeMisses                      0                       # write misses (Count)
system.cpu.mmu.dtb.writeAccesses                    0                       # write accesses (Count)
system.cpu.mmu.dtb.hits                             0                       # Total TLB (read and write) hits (Count)
system.cpu.mmu.dtb.misses                           0                       # Total TLB (read and write) misses (Count)
system.cpu.mmu.dtb.accesses                         0                       # Total TLB (read and write) accesses (Count)
system.cpu.mmu.dtb.walker.num_4kb_walks             0                       # Completed page walks with 4KB pages (Count)
system.cpu.mmu.dtb.walker.num_2mb_walks             0                       # Completed page walks with 2MB pages (Count)
system.cpu.mmu.dtb.walker.power_state.pwrStateResidencyTicks::UNDEFINED  25508411303                       # Cumulative time (in ticks) in various power states (Tick)
system.cpu.mmu.itb.readHits                         0                       # read hits (Count)
system.cpu.mmu.itb.readMisses                       0                       # read misses (Count)
system.cpu.mmu.itb.readAccesses                     0                       # read accesses (Count)
system.cpu.mmu.itb.writeHits                        0                       # write hits (Count)
system.cpu.mmu.itb.writeMisses                      0                       # write misses (Count)
system.cpu.mmu.itb.writeAccesses                    0                       # write accesses (Count)
system.cpu.mmu.itb.hits                             0                       # Total TLB (read and write) hits (Count)
system.cpu.mmu.itb.misses                           0                       # Total TLB (read and write) misses (Count)
system.cpu.mmu.itb.accesses                         0                       # Total TLB (read and write) accesses (Count)
system.cpu.mmu.itb.walker.num_4kb_walks             0                       # Completed page walks with 4KB pages (Count)
system.cpu.mmu.itb.walker.num_2mb_walks             0                       # Completed page walks with 2MB pages (Count)
system.cpu.mmu.itb.walker.power_state.pwrStateResidencyTicks::UNDEFINED  25508411303                       # Cumulative time (in ticks) in various power states (Tick)
system.cpu.power_state.pwrStateResidencyTicks::ON  25508411303                       # Cumulative time (in ticks) in various power states (Tick)
system.cpu.thread_0.numInsts                 32705805                       # Number of Instructions committed (Count)
system.cpu.thread_0.numOps                   32869951                       # Number of Ops committed (Count)
system.cpu.thread_0.numMemRefs                      0                       # Number of Memory References (Count)
system.cpu.workload.numSyscalls                    67                       # Number of system calls (Count)
system.l2bus.transDist::ReadResp                38447                       # Transaction distribution (Count)
system.l2bus.transDist::WritebackDirty          54483                       # Transaction distribution (Count)
system.l2bus.transDist::CleanEvict              17638                       # Transaction distribution (Count)
system.l2bus.transDist::ReadExReq               24271                       # Transaction distribution (Count)
system.l2bus.transDist::ReadExResp              24271                       # Transaction distribution (Count)
system.l2bus.transDist::ReadSharedReq           38448                       # Transaction distribution (Count)
system.l2bus.pktCount_system.cpu.icache.mem_side_port::system.l2cache.cpu_side_port         5997                       # Packet count per connected requestor and responder (Count)
system.l2bus.pktCount_system.cpu.dcache.mem_side_port::system.l2cache.cpu_side_port       180254                       # Packet count per connected requestor and responder (Count)
system.l2bus.pktCount::total                   186251                       # Packet count per connected requestor and responder (Count)
system.l2bus.pktSize_system.cpu.icache.mem_side_port::system.l2cache.cpu_side_port       146688                       # Cumulative packet size per connected requestor and responder (Byte)
system.l2bus.pktSize_system.cpu.dcache.mem_side_port::system.l2cache.cpu_side_port      7035328                       # Cumulative packet size per connected requestor and responder (Byte)
system.l2bus.pktSize::total                   7182016                       # Cumulative packet size per connected requestor and responder (Byte)
system.l2bus.snoops                             11307                       # Total snoops (Count)
system.l2bus.snoopTraffic                      318848                       # Total snoop traffic (Byte)
system.l2bus.snoopFanout::samples               74026                       # Request fanout histogram (Count)
system.l2bus.snoopFanout::mean               0.008659                       # Request fanout histogram (Count)
system.l2bus.snoopFanout::stdev              0.092651                       # Request fanout histogram (Count)
system.l2bus.snoopFanout::underflows                0      0.00%      0.00% # Request fanout histogram (Count)
system.l2bus.snoopFanout::0                     73385     99.13%     99.13% # Request fanout histogram (Count)
system.l2bus.snoopFanout::1                       641      0.87%    100.00% # Request fanout histogram (Count)
system.l2bus.snoopFanout::2                         0      0.00%    100.00% # Request fanout histogram (Count)
system.l2bus.snoopFanout::overflows                 0      0.00%    100.00% # Request fanout histogram (Count)
system.l2bus.snoopFanout::min_value                 0                       # Request fanout histogram (Count)
system.l2bus.snoopFanout::max_value                 1                       # Request fanout histogram (Count)
system.l2bus.snoopFanout::total                 74026                       # Request fanout histogram (Count)
system.l2bus.power_state.pwrStateResidencyTicks::UNDEFINED  25508411303                       # Cumulative time (in ticks) in various power states (Tick)
system.l2bus.reqLayer0.occupancy            120391435                       # Layer occupancy (ticks) (Tick)
system.l2bus.reqLayer0.utilization                0.0                       # Layer utilization (Ratio)
system.l2bus.respLayer0.occupancy             3719916                       # Layer occupancy (ticks) (Tick)
system.l2bus.respLayer0.utilization               0.0                       # Layer utilization (Ratio)
system.l2bus.respLayer1.occupancy            98071398                       # Layer occupancy (ticks) (Tick)
system.l2bus.respLayer1.utilization               0.0                       # Layer utilization (Ratio)
system.l2bus.snoop_filter.totRequests          123533                       # Total number of requests made to the snoop filter. (Count)
system.l2bus.snoop_filter.hitSingleRequests        60815                       # Number of requests hitting in the snoop filter with a single holder of the requested data. (Count)
system.l2bus.snoop_filter.hitMultiRequests            0                       # Number of requests hitting in the snoop filter with multiple (>1) holders of the requested data. (Count)
system.l2bus.snoop_filter.totSnoops               640                       # Total number of snoops made to the snoop filter. (Count)
system.l2bus.snoop_filter.hitSingleSnoops          640                       # Number of snoops hitting in the snoop filter with a single holder of the requested data. (Count)
system.l2bus.snoop_filter.hitMultiSnoops            0                       # Number of snoops hitting in the snoop filter with multiple (>1) holders of the requested data. (Count)
system.l2cache.demandHits::cpu.inst               546                       # number of demand (read+write) hits (Count)
system.l2cache.demandHits::cpu.data             34481                       # number of demand (read+write) hits (Count)
system.l2cache.demandHits::total                35027                       # number of demand (read+write) hits (Count)
system.l2cache.overallHits::cpu.inst              546                       # number of overall hits (Count)
system.l2cache.overallHits::cpu.data            34481                       # number of overall hits (Count)
system.l2cache.overallHits::total               35027                       # number of overall hits (Count)
system.l2cache.demandMisses::cpu.inst            1747                       # number of demand (read+write) misses (Count)
system.l2cache.demandMisses::cpu.data           25945                       # number of demand (read+write) misses (Count)
system.l2cache.demandMisses::total              27692                       # number of demand (read+write) misses (Count)
system.l2cache.overallMisses::cpu.inst           1747                       # number of overall misses (Count)
system.l2cache.overallMisses::cpu.data          25945                       # number of overall misses (Count)
system.l2cache.overallMisses::total             27692                       # number of overall misses (Count)
system.l2cache.demandMissLatency::cpu.inst    142802901                       # number of demand (read+write) miss ticks (Tick)
system.l2cache.demandMissLatency::cpu.data   2132593868                       # number of demand (read+write) miss ticks (Tick)
system.l2cache.demandMissLatency::total    2275396769                       # number of demand (read+write) miss ticks (Tick)
system.l2cache.overallMissLatency::cpu.inst    142802901                       # number of overall miss ticks (Tick)
system.l2cache.overallMissLatency::cpu.data   2132593868                       # number of overall miss ticks (Tick)
system.l2cache.overallMissLatency::total   2275396769                       # number of overall miss ticks (Tick)
system.l2cache.demandAccesses::cpu.inst          2293                       # number of demand (read+write) accesses (Count)
system.l2cache.demandAccesses::cpu.data         60426                       # number of demand (read+write) accesses (Count)
system.l2cache.demandAccesses::total            62719                       # number of demand (read+write) accesses (Count)
system.l2cache.overallAccesses::cpu.inst         2293                       # number of overall (read+write) accesses (Count)
system.l2cache.overallAccesses::cpu.data        60426                       # number of overall (read+write) accesses (Count)
system.l2cache.overallAccesses::total           62719                       # number of overall (read+write) accesses (Count)
system.l2cache.demandMissRate::cpu.inst      0.761884                       # miss rate for demand accesses (Ratio)
system.l2cache.demandMissRate::cpu.data      0.429368                       # miss rate for demand accesses (Ratio)
system.l2cache.demandMissRate::total         0.441525                       # miss rate for demand accesses (Ratio)
system.l2cache.overallMissRate::cpu.inst     0.761884                       # miss rate for overall accesses (Ratio)
system.l2cache.overallMissRate::cpu.data     0.429368                       # miss rate for overall accesses (Ratio)
system.l2cache.overallMissRate::total        0.441525                       # miss rate for overall accesses (Ratio)
system.l2cache.demandAvgMissLatency::cpu.inst 81741.786491                       # average overall miss latency in ticks ((Tick/Count))
system.l2cache.demandAvgMissLatency::cpu.data 82196.718751                       # average overall miss latency in ticks ((Tick/Count))
[...]
system.mem_ctrl.wrPerTurnAround::16               140     47.95%     47.95% # Writes before turning the bus around for reads (Count)
system.mem_ctrl.wrPerTurnAround::17                11      3.77%     51.71% # Writes before turning the bus around for reads (Count)
system.mem_ctrl.wrPerTurnAround::18               141     48.29%    100.00% # Writes before turning the bus around for reads (Count)
system.mem_ctrl.wrPerTurnAround::total            292                       # Writes before turning the bus around for reads (Count)
system.mem_ctrl.bytesReadWrQ                      320                       # Total number of bytes read from write queue (Byte)
system.mem_ctrl.bytesReadSys                  1772224                       # Total read bytes from the system interface side (Byte)
system.mem_ctrl.bytesWrittenSys                318848                       # Total written bytes from the system interface side (Byte)
system.mem_ctrl.avgRdBWSys               69476063.36391369                       # Average system read bandwidth in Byte/s ((Byte/Second))
system.mem_ctrl.avgWrBWSys               12499720.04185540                       # Average system write bandwidth in Byte/s ((Byte/Second))
system.mem_ctrl.totGap                    25508392909                       # Total gap between requests (Tick)
system.mem_ctrl.avgGap                      780717.81                       # Average gap between requests ((Tick/Count))
system.mem_ctrl.requestorReadBytes::cpu.inst       111744                       # Per-requestor bytes read from memory (Byte)
system.mem_ctrl.requestorReadBytes::cpu.data      1660160                       # Per-requestor bytes read from memory (Byte)
system.mem_ctrl.requestorWriteBytes::writebacks       317760                       # Per-requestor bytes write to memory (Byte)
system.mem_ctrl.requestorReadRate::cpu.inst 4380672.660192600451                       # Per-requestor bytes read from memory rate ((Byte/Second))
system.mem_ctrl.requestorReadRate::cpu.data 65082845.822105415165                       # Per-requestor bytes read from memory rate ((Byte/Second))
system.mem_ctrl.requestorWriteRate::writebacks 12457067.444362120703                       # Per-requestor bytes write to memory rate ((Byte/Second))
system.mem_ctrl.requestorReadAccesses::cpu.inst         1746                       # Per-requestor read serviced memory accesses (Count)
system.mem_ctrl.requestorReadAccesses::cpu.data        25945                       # Per-requestor read serviced memory accesses (Count)
system.mem_ctrl.requestorWriteAccesses::writebacks         4982                       # Per-requestor write serviced memory accesses (Count)
system.mem_ctrl.requestorReadTotalLat::cpu.inst     58937742                       # Per-requestor read total memory access latency (Tick)
system.mem_ctrl.requestorReadTotalLat::cpu.data    886369481                       # Per-requestor read total memory access latency (Tick)
system.mem_ctrl.requestorWriteTotalLat::writebacks 481071172776                       # Per-requestor write total memory access latency (Tick)
system.mem_ctrl.requestorReadAvgLat::cpu.inst     33755.87                       # Per-requestor read average memory access latency ((Tick/Count))
system.mem_ctrl.requestorReadAvgLat::cpu.data     34163.40                       # Per-requestor read average memory access latency ((Tick/Count))
system.mem_ctrl.requestorWriteAvgLat::writebacks  96561857.24                       # Per-requestor write average memory access latency ((Tick/Count))
system.mem_ctrl.dram.bytesRead::cpu.inst       111744                       # Number of bytes read from this memory (Byte)
system.mem_ctrl.dram.bytesRead::cpu.data      1660480                       # Number of bytes read from this memory (Byte)
system.mem_ctrl.dram.bytesRead::total         1772224                       # Number of bytes read from this memory (Byte)
system.mem_ctrl.dram.bytesInstRead::cpu.inst       111744                       # Number of instructions bytes read from this memory (Byte)
system.mem_ctrl.dram.bytesInstRead::total       111744                       # Number of instructions bytes read from this memory (Byte)
system.mem_ctrl.dram.bytesWritten::writebacks       318848                       # Number of bytes written to this memory (Byte)
system.mem_ctrl.dram.bytesWritten::total       318848                       # Number of bytes written to this memory (Byte)
system.mem_ctrl.dram.numReads::cpu.inst          1746                       # Number of read requests responded to by this memory (Count)
system.mem_ctrl.dram.numReads::cpu.data         25945                       # Number of read requests responded to by this memory (Count)
system.mem_ctrl.dram.numReads::total            27691                       # Number of read requests responded to by this memory (Count)
system.mem_ctrl.dram.numWrites::writebacks         4982                       # Number of write requests responded to by this memory (Count)
system.mem_ctrl.dram.numWrites::total            4982                       # Number of write requests responded to by this memory (Count)
system.mem_ctrl.dram.bwRead::cpu.inst         4380673                       # Total read bandwidth from this memory ((Byte/Second))
system.mem_ctrl.dram.bwRead::cpu.data        65095391                       # Total read bandwidth from this memory ((Byte/Second))
system.mem_ctrl.dram.bwRead::total           69476063                       # Total read bandwidth from this memory ((Byte/Second))
system.mem_ctrl.dram.bwInstRead::cpu.inst      4380673                       # Instruction read bandwidth from this memory ((Byte/Second))
system.mem_ctrl.dram.bwInstRead::total        4380673                       # Instruction read bandwidth from this memory ((Byte/Second))
system.mem_ctrl.dram.bwWrite::writebacks     12499720                       # Write bandwidth from this memory ((Byte/Second))
system.mem_ctrl.dram.bwWrite::total          12499720                       # Write bandwidth from this memory ((Byte/Second))
system.mem_ctrl.dram.bwTotal::writebacks     12499720                       # Total bandwidth to/from this memory ((Byte/Second))
system.mem_ctrl.dram.bwTotal::cpu.inst        4380673                       # Total bandwidth to/from this memory ((Byte/Second))
system.mem_ctrl.dram.bwTotal::cpu.data       65095391                       # Total bandwidth to/from this memory ((Byte/Second))
system.mem_ctrl.dram.bwTotal::total          81975783                       # Total bandwidth to/from this memory ((Byte/Second))
system.mem_ctrl.dram.readBursts                 27686                       # Number of DRAM read bursts (Count)
system.mem_ctrl.dram.writeBursts                 4965                       # Number of DRAM write bursts (Count)
system.mem_ctrl.dram.perBankRdBursts::0          3368                       # Per bank write bursts (Count)
system.mem_ctrl.dram.perBankRdBursts::1          3696                       # Per bank write bursts (Count)
system.mem_ctrl.dram.perBankRdBursts::2          3659                       # Per bank write bursts (Count)
system.mem_ctrl.dram.perBankRdBursts::3          3566                       # Per bank write bursts (Count)
system.mem_ctrl.dram.perBankRdBursts::4          3444                       # Per bank write bursts (Count)
system.mem_ctrl.dram.perBankRdBursts::5          3210                       # Per bank write bursts (Count)
system.mem_ctrl.dram.perBankRdBursts::6          3300                       # Per bank write bursts (Count)
system.mem_ctrl.dram.perBankRdBursts::7          3443                       # Per bank write bursts (Count)
system.mem_ctrl.dram.perBankWrBursts::0           587                       # Per bank write bursts (Count)
system.mem_ctrl.dram.perBankWrBursts::1           781                       # Per bank write bursts (Count)
system.mem_ctrl.dram.perBankWrBursts::2           791                       # Per bank write bursts (Count)
system.mem_ctrl.dram.perBankWrBursts::3           668                       # Per bank write bursts (Count)
system.mem_ctrl.dram.perBankWrBursts::4           541                       # Per bank write bursts (Count)
system.mem_ctrl.dram.perBankWrBursts::5           407                       # Per bank write bursts (Count)
system.mem_ctrl.dram.perBankWrBursts::6           535                       # Per bank write bursts (Count)
system.mem_ctrl.dram.perBankWrBursts::7           655                       # Per bank write bursts (Count)
system.mem_ctrl.dram.totQLat                314343283                       # Total ticks spent queuing (Tick)
system.mem_ctrl.dram.totBusLat              118772940                       # Total ticks spent in databus transfers (Tick)
system.mem_ctrl.dram.totMemAccLat           945307223                       # Total ticks spent from burst creation until serviced by the DRAM (Tick)
system.mem_ctrl.dram.avgQLat                 11353.87                       # Average queueing delay per DRAM burst ((Tick/Count))
system.mem_ctrl.dram.avgBusLat                4290.00                       # Average bus latency per DRAM burst ((Tick/Count))
system.mem_ctrl.dram.avgMemAccLat            34143.87                       # Average memory access latency per DRAM burst ((Tick/Count))
system.mem_ctrl.dram.readRowHits                19445                       # Number of row buffer hits during reads (Count)
system.mem_ctrl.dram.writeRowHits                3865                       # Number of row buffer hits during writes (Count)
system.mem_ctrl.dram.readRowHitRate             70.23                       # Row buffer hit rate for reads (Ratio)
system.mem_ctrl.dram.writeRowHitRate            77.84                       # Row buffer hit rate for writes (Ratio)
system.mem_ctrl.dram.bytesPerActivate::samples         9337                       # Bytes accessed per row activation (Byte)
system.mem_ctrl.dram.bytesPerActivate::mean   223.770376                       # Bytes accessed per row activation (Byte)
system.mem_ctrl.dram.bytesPerActivate::gmean   130.514512                       # Bytes accessed per row activation (Byte)
system.mem_ctrl.dram.bytesPerActivate::stdev   282.549688                       # Bytes accessed per row activation (Byte)
system.mem_ctrl.dram.bytesPerActivate::0-127         5167     55.34%     55.34% # Bytes accessed per row activation (Byte)
system.mem_ctrl.dram.bytesPerActivate::128-255         1737     18.60%     73.94% # Bytes accessed per row activation (Byte)
system.mem_ctrl.dram.bytesPerActivate::256-383          815      8.73%     82.67% # Bytes accessed per row activation (Byte)
system.mem_ctrl.dram.bytesPerActivate::384-511          319      3.42%     86.09% # Bytes accessed per row activation (Byte)
system.mem_ctrl.dram.bytesPerActivate::512-639          209      2.24%     88.33% # Bytes accessed per row activation (Byte)
system.mem_ctrl.dram.bytesPerActivate::640-767          174      1.86%     90.19% # Bytes accessed per row activation (Byte)
system.mem_ctrl.dram.bytesPerActivate::768-895          120      1.29%     91.47% # Bytes accessed per row activation (Byte)
system.mem_ctrl.dram.bytesPerActivate::896-1023          110      1.18%     92.65% # Bytes accessed per row activation (Byte)
system.mem_ctrl.dram.bytesPerActivate::1024-1151          686      7.35%    100.00% # Bytes accessed per row activation (Byte)
system.mem_ctrl.dram.bytesPerActivate::total         9337                       # Bytes accessed per row activation (Byte)
system.mem_ctrl.dram.dramBytesRead            1771904                       # Total bytes read (Byte)
system.mem_ctrl.dram.dramBytesWritten          317760                       # Total bytes written (Byte)
system.mem_ctrl.dram.avgRdBW                69.463518                       # Average DRAM read bandwidth in MiBytes/s ((Byte/Second))
system.mem_ctrl.dram.avgWrBW                12.457067                       # Average DRAM write bandwidth in MiBytes/s ((Byte/Second))
system.mem_ctrl.dram.peakBW                  14918.00                       # Theoretical peak bandwidth in MiByte/s ((Byte/Second))
system.mem_ctrl.dram.busUtil                     0.55                       # Data bus utilization in percentage (Ratio)
system.mem_ctrl.dram.busUtilRead                 0.47                       # Data bus utilization in percentage for reads (Ratio)
system.mem_ctrl.dram.busUtilWrite                0.08                       # Data bus utilization in percentage for writes (Ratio)
system.mem_ctrl.dram.pageHitRate                71.39                       # Row buffer hit rate, read and write combined (Ratio)
system.mem_ctrl.dram.power_state.pwrStateResidencyTicks::UNDEFINED  25508411303                       # Cumulative time (in ticks) in various power states (Tick)
system.mem_ctrl.dram.rank0.actEnergy     34807106.751999                       # Energy for activate commands per rank (pJ) (Joule)
system.mem_ctrl.dram.rank0.preEnergy     18717323.680000                       # Energy for precharge commands per rank (pJ) (Joule)
system.mem_ctrl.dram.rank0.readEnergy    44400370.431999                       # Energy for read commands per rank (pJ) (Joule)
system.mem_ctrl.dram.rank0.writeEnergy   7025673.600000                       # Energy for write commands per rank (pJ) (Joule)
system.mem_ctrl.dram.rank0.refreshEnergy 288939965.599982                       # Energy for refresh commands per rank (pJ) (Joule)
system.mem_ctrl.dram.rank0.actBackEnergy 1415307973.200079                       # Energy for active background per rank (pJ) (Joule)
system.mem_ctrl.dram.rank0.preBackEnergy 1112493835.200012                       # Energy for precharge background per rank (pJ) (Joule)
system.mem_ctrl.dram.rank0.actPowerDownEnergy            0                       # Energy for active power-down per rank (pJ) (Joule)
system.mem_ctrl.dram.rank0.prePowerDownEnergy            0                       # Energy for precharge power-down per rank (pJ) (Joule)
system.mem_ctrl.dram.rank0.selfRefreshEnergy            0                       # Energy for self refresh per rank (pJ) (Joule)
system.mem_ctrl.dram.rank0.totalEnergy   2921692248.463922                       # Total energy per rank (pJ) (Joule)
system.mem_ctrl.dram.rank0.averagePower    114.538386                       # Core power per rank (mW) (Watt)
system.mem_ctrl.dram.rank0.totalIdleTime            0                       # Total Idle time Per DRAM Rank (Tick)
system.mem_ctrl.dram.rank0.pwrStateTime::IDLE  12524978640                       # Time in different power states (Tick)
system.mem_ctrl.dram.rank0.pwrStateTime::REF    524480000                       # Time in different power states (Tick)
system.mem_ctrl.dram.rank0.pwrStateTime::SREF            0                       # Time in different power states (Tick)
system.mem_ctrl.dram.rank0.pwrStateTime::PRE_PDN            0                       # Time in different power states (Tick)
system.mem_ctrl.dram.rank0.pwrStateTime::ACT  12458952663                       # Time in different power states (Tick)
system.mem_ctrl.dram.rank0.pwrStateTime::ACT_PDN            0                       # Time in different power states (Tick)
system.mem_ctrl.power_state.pwrStateResidencyTicks::UNDEFINED  25508411303                       # Cumulative time (in ticks) in various power states (Tick)
system.membus.transDist::ReadResp               11794                       # Transaction distribution (Count)
system.membus.transDist::WritebackDirty          4982                       # Transaction distribution (Count)
system.membus.transDist::CleanEvict              5911                       # Transaction distribution (Count)
system.membus.transDist::ReadExReq              15897                       # Transaction distribution (Count)
system.membus.transDist::ReadExResp             15897                       # Transaction distribution (Count)
system.membus.transDist::ReadSharedReq          11794                       # Transaction distribution (Count)
system.membus.pktCount_system.l2cache.mem_side_port::system.mem_ctrl.port        66275                       # Packet count per connected requestor and responder (Count)
system.membus.pktSize_system.l2cache.mem_side_port::system.mem_ctrl.port      2091072                       # Cumulative packet size per connected requestor and responder (Byte)
system.membus.snoops                                0                       # Total snoops (Count)
system.membus.snoopTraffic                          0                       # Total snoop traffic (Byte)
system.membus.snoopFanout::samples              27691                       # Request fanout histogram (Count)
system.membus.snoopFanout::mean                     0                       # Request fanout histogram (Count)
system.membus.snoopFanout::stdev                    0                       # Request fanout histogram (Count)
system.membus.snoopFanout::underflows               0      0.00%      0.00% # Request fanout histogram (Count)
system.membus.snoopFanout::0                    27691    100.00%    100.00% # Request fanout histogram (Count)
system.membus.snoopFanout::1                        0      0.00%    100.00% # Request fanout histogram (Count)
system.membus.snoopFanout::overflows                0      0.00%    100.00% # Request fanout histogram (Count)
system.membus.snoopFanout::min_value                0                       # Request fanout histogram (Count)
system.membus.snoopFanout::max_value                0                       # Request fanout histogram (Count)
system.membus.snoopFanout::total                27691                       # Request fanout histogram (Count)
system.membus.power_state.pwrStateResidencyTicks::UNDEFINED  25508411303                       # Cumulative time (in ticks) in various power states (Tick)
system.membus.reqLayer0.occupancy            31654992                       # Layer occupancy (ticks) (Tick)
system.membus.reqLayer0.utilization               0.0                       # Layer utilization (Ratio)
system.membus.respLayer0.occupancy           87201320                       # Layer occupancy (ticks) (Tick)
system.membus.respLayer0.utilization              0.0                       # Layer utilization (Ratio)
system.membus.snoop_filter.totRequests          38584                       # Total number of requests made to the snoop filter. (Count)
system.membus.snoop_filter.hitSingleRequests        10893                       # Number of requests hitting in the snoop filter with a single holder of the requested data. (Count)
system.membus.snoop_filter.hitMultiRequests            0                       # Number of requests hitting in the snoop filter with multiple (>1) holders of the requested data. (Count)
system.membus.snoop_filter.totSnoops                0                       # Total number of snoops made to the snoop filter. (Count)
system.membus.snoop_filter.hitSingleSnoops            0                       # Number of snoops hitting in the snoop filter with a single holder of the requested data. (Count)
system.membus.snoop_filter.hitMultiSnoops            0                       # Number of snoops hitting in the snoop filter with multiple (>1) holders of the requested data. (Count)
system.workload.inst.arm                            0                       # number of arm instructions executed (Count)
system.workload.inst.quiesce                        0                       # number of quiesce instructions executed (Count)
system.cpu.idleCycles                         3338202                       # Total number of cycles that the object has spent stopped (Unspecified)
system.cpu.tickCycles                        43812281                       # Number of cycles that the object actually ticked (Unspecified)

---------- End Simulation Statistics   ----------
